/*--------------------------------*- C++ -*----------------------------------*\
| =========                 |                                                 |
| \\      /  F ield         | foam-extend: Open Source CFD                    |
|  \\    /   O peration     | Version:     4.1                                |
|   \\  /    A nd           | Web:         http://www.foam-extend.org         |
|    \\/     M anipulation  |                                                 |
\*---------------------------------------------------------------------------*/
FoamFile
{
    version     2.0;
    format      ascii;
    class       dictionary;
    object      blockMeshDict;
}
// * * * * * * * * * * * * * * * * * * * * * * * * * * * * * * * * * * * * * //

convertToMeters 0.001;

vertices
(
    (-4 -4  -8)
    (4 -4  -8)
    (4  4  -8)
    (-4  4  -8)
    (-4 -4   8)
    (4 -4   8)
    (4  4   8)
    (-4  4  8)
);

blocks
(
    hex (0 1 2 3 4 5 6 7) (30 30 75)  simpleGrading (1 1 1)
);

edges
(
);

faces
(
);

boundary
(
    inlet
    {
        type patch;
        faces
        (
            
            (0 3 2 1)
        );
    }

    outlet
    {
        type patch;
        faces
        (
            
            (4 5 6 7)
        );
    }

    sides
    {
        type patch;
	faces
	(
            (3 7 6 2)
            (1 5 4 0)
            (0 4 7 3)
            (2 6 5 1)
	);
    }
);

mergePatchPairs
(
);


// ************************************************************************* //
