/*--------------------------------*- C++ -*----------------------------------*\
| =========                 |                                                 |
| \\      /  F ield         | foam-extend: Open Source CFD                    |
|  \\    /   O peration     | Version:     4.1                                |
|   \\  /    A nd           | Web:         http://www.foam-extend.org         |
|    \\/     M anipulation  |                                                 |
\*---------------------------------------------------------------------------*/
FoamFile
{
    version     2.0;
    format      ascii;
    class       volScalarField;
    location    "3e-05";
    object      cellLevel;
}
// * * * * * * * * * * * * * * * * * * * * * * * * * * * * * * * * * * * * * //

dimensions      [0 0 0 0 0 0 0];

internalField   nonuniform List<scalar> 
1380727
(
3
3
3
3
3
2
3
3
2
2
3
3
3
3
2
1
2
2
2
1
1
1
1
3
1
1
1
1
1
2
1
1
1
1
1
2
2
1
1
1
1
2
2
2
2
2
3
2
2
3
2
1
1
2
3
1
1
1
2
3
2
1
1
2
3
3
2
2
3
2
1
1
2
1
1
1
1
1
2
3
1
1
1
1
1
2
2
1
1
1
1
1
2
3
1
1
1
1
1
2
2
1
1
1
2
3
3
2
2
3
1
1
1
1
1
3
1
1
1
1
1
3
2
1
1
1
2
3
3
1
1
1
2
3
2
1
2
2
2
1
1
1
1
1
1
3
3
1
1
1
1
1
1
1
2
1
1
1
1
1
1
1
2
3
1
1
1
1
1
1
1
2
1
1
1
1
1
1
1
2
2
1
1
1
1
1
1
3
1
1
1
2
3
2
1
1
1
2
3
1
1
1
1
1
1
3
2
1
1
1
1
1
1
2
1
1
1
1
1
1
1
2
2
1
1
1
1
1
1
2
3
1
1
1
2
3
1
1
1
1
1
1
3
2
1
1
1
1
1
1
3
1
1
1
2
2
1
1
1
1
1
1
1
2
3
3
2
1
1
1
1
1
1
1
1
2
1
1
1
1
1
1
1
1
3
1
1
1
1
1
1
1
2
1
1
1
1
1
1
1
2
3
1
1
1
1
1
2
2
2
2
3
1
1
1
1
1
1
1
2
3
1
1
1
1
1
1
1
2
2
1
2
2
1
1
1
1
1
1
1
2
2
1
1
1
1
1
1
1
1
1
1
1
1
2
3
1
1
1
1
1
1
1
2
2
1
1
1
2
3
1
1
1
1
1
1
1
1
1
3
3
2
3
1
1
1
1
1
1
1
1
1
2
1
1
1
1
1
1
1
1
1
2
1
1
1
1
1
1
1
1
1
3
1
1
1
2
3
3
1
1
1
1
1
1
1
2
3
1
1
1
1
1
1
3
2
1
1
1
1
1
2
3
1
1
1
1
1
1
1
1
3
2
2
2
2
2
1
1
1
1
1
1
1
1
2
2
1
1
1
1
1
1
1
1
2
3
2
2
3
2
1
1
1
1
1
1
1
1
2
3
1
1
1
1
1
2
1
1
1
1
1
1
1
1
3
1
1
1
1
1
1
1
2
2
1
1
1
1
1
1
2
1
1
1
1
1
1
1
1
1
3
2
2
1
1
2
2
1
1
1
1
1
1
1
1
1
2
1
1
1
1
1
1
1
1
1
2
1
1
1
1
1
1
1
1
1
2
2
1
1
1
1
1
1
1
1
3
1
1
1
1
1
1
1
2
2
1
1
1
2
3
3
3
3
3
3
3
3
1
1
1
1
1
1
1
1
1
3
1
1
1
1
1
1
1
1
1
3
2
1
1
1
1
3
1
1
1
1
1
1
1
1
1
3
1
1
1
1
1
1
1
2
2
1
1
1
1
1
1
1
2
1
1
1
1
1
1
1
1
1
3
1
1
1
1
1
1
1
3
1
1
1
1
1
1
1
1
1
2
2
1
1
1
2
3
3
1
1
1
1
1
1
1
1
1
1
3
3
3
1
1
1
1
1
1
1
1
1
1
3
3
1
1
1
1
1
1
1
1
1
2
1
1
1
1
1
1
2
1
1
1
1
1
1
1
1
3
1
1
1
1
1
1
1
1
1
1
1
1
1
1
1
2
1
1
1
1
1
1
1
1
1
2
2
1
1
1
2
2
1
1
1
1
1
1
1
1
1
1
3
3
1
1
1
1
1
1
1
1
1
1
2
1
1
1
2
1
1
1
1
1
1
1
1
1
1
1
1
1
1
1
1
1
3
1
1
1
1
1
1
1
1
1
2
1
1
1
1
1
1
1
1
1
3
1
1
1
1
1
1
1
1
3
1
1
1
1
1
1
1
1
1
2
3
1
1
1
1
1
2
3
3
1
1
1
1
1
1
1
1
1
2
3
2
2
2
2
1
1
1
1
1
1
1
1
1
1
3
1
1
1
1
1
1
1
1
1
2
1
1
1
1
1
1
1
1
1
2
2
1
1
1
1
1
1
1
2
2
1
1
2
3
2
1
1
1
1
1
2
2
1
1
1
1
2
3
2
2
3
2
1
1
1
1
1
3
2
1
1
1
1
1
3
2
1
1
1
1
2
2
2
2
2
3
3
3
1
1
1
1
1
1
1
1
1
2
3
1
1
1
1
1
1
1
1
1
2
1
1
1
1
1
2
3
1
1
1
1
1
1
1
1
1
2
1
1
1
1
1
1
1
1
1
1
1
1
1
1
1
1
1
3
1
1
1
1
1
1
1
1
1
2
2
1
1
1
1
1
1
1
2
3
1
1
1
1
1
1
1
1
1
1
2
1
1
1
1
1
2
2
1
1
1
1
1
1
1
1
1
1
3
3
2
2
2
3
2
1
1
1
1
1
1
1
1
1
1
3
2
1
2
2
3
1
1
1
1
1
1
1
1
1
2
2
1
1
1
1
1
1
2
1
1
1
1
1
1
1
1
1
2
3
1
1
1
1
1
1
1
1
3
3
1
1
1
1
1
1
1
2
1
1
1
1
1
1
1
1
1
2
3
1
1
1
1
1
2
1
1
1
1
1
1
1
1
1
1
3
3
3
3
3
1
1
1
1
1
1
1
1
1
1
3
2
1
1
1
1
3
1
1
1
1
1
1
1
1
1
1
3
1
1
1
1
1
1
1
2
1
1
1
1
1
1
1
1
1
2
1
1
1
1
1
1
1
1
1
3
2
1
1
1
1
1
1
1
1
2
3
1
1
1
1
1
1
1
1
1
2
2
1
1
1
1
1
1
2
2
1
1
1
1
1
1
1
1
1
1
3
2
2
2
2
3
2
1
1
1
1
1
1
1
1
1
1
3
2
1
1
1
1
1
1
1
1
1
2
1
1
1
1
1
1
1
1
1
2
1
1
1
1
2
2
1
1
1
1
1
1
1
2
1
1
1
1
1
1
2
2
1
1
1
1
1
2
3
2
1
1
1
1
1
1
1
3
2
2
2
2
1
1
1
1
1
1
1
1
2
1
1
1
1
1
1
1
1
3
2
1
1
1
1
1
1
1
3
1
1
1
1
1
1
2
3
2
1
1
1
2
3
2
1
1
1
1
1
1
1
1
1
2
3
3
2
1
1
1
1
1
1
1
1
1
1
1
1
1
1
1
2
2
1
1
1
1
1
1
1
1
1
2
3
1
1
1
1
1
1
1
2
3
1
1
1
1
1
1
1
1
1
1
1
1
1
1
1
1
1
1
1
2
1
1
1
1
1
1
1
1
2
2
1
1
1
1
1
1
1
1
1
1
2
1
1
1
1
1
2
3
2
1
1
1
1
1
1
1
1
1
1
3
3
2
2
2
2
2
1
1
1
1
1
1
1
1
1
1
3
2
2
2
3
3
1
1
1
1
1
1
1
1
1
2
2
1
1
1
1
1
1
2
1
1
1
1
1
1
1
1
1
2
2
1
1
1
1
1
1
1
1
2
3
1
1
1
1
1
1
1
2
1
1
1
1
1
1
1
1
1
1
3
2
1
1
1
1
2
3
1
1
1
1
1
1
1
1
1
1
3
3
3
3
3
1
1
1
1
1
1
1
1
1
1
3
2
1
1
1
2
3
1
1
1
1
1
1
1
1
1
1
3
1
1
1
1
1
1
1
2
1
1
1
1
1
1
1
1
1
1
3
1
1
1
1
1
1
1
1
1
3
2
1
1
1
1
1
1
1
1
2
3
1
1
1
1
1
1
1
1
1
2
2
1
1
1
1
1
1
2
2
1
1
1
1
1
1
1
1
1
1
3
2
1
1
2
2
2
1
1
1
1
1
1
1
1
1
1
2
1
1
1
1
1
1
1
1
1
2
2
1
1
2
3
1
1
1
1
1
1
1
1
1
2
1
1
1
1
1
1
2
2
1
1
1
1
1
1
1
2
1
1
1
1
1
1
1
1
3
2
1
1
1
1
1
2
3
3
1
1
1
1
1
1
1
1
2
3
2
2
2
2
2
1
1
1
1
1
1
1
1
1
2
1
1
1
1
1
1
1
1
1
3
1
1
1
1
1
1
1
1
2
1
1
1
1
1
1
1
1
2
1
1
1
1
1
1
2
2
2
2
2
3
2
1
1
1
1
1
1
1
1
1
2
1
1
1
1
1
1
1
1
1
1
1
2
1
1
1
1
2
2
1
1
1
1
1
1
1
1
1
2
1
1
1
1
1
1
1
2
3
1
1
1
1
1
1
1
1
1
2
2
1
1
1
1
1
1
1
1
3
1
1
1
1
1
1
1
1
1
3
1
1
1
1
1
1
1
1
1
2
1
1
1
1
1
1
1
3
3
1
1
1
1
1
1
1
1
1
1
2
2
2
2
2
3
1
1
1
1
1
1
1
1
1
2
2
2
2
3
1
1
1
1
1
1
1
1
1
2
2
1
1
1
1
1
1
2
2
1
1
1
1
1
1
1
1
2
3
1
1
1
1
1
1
1
1
3
3
1
1
1
1
1
1
1
2
1
1
1
1
1
1
1
1
1
2
3
2
1
1
1
2
2
1
1
1
1
1
1
1
1
1
1
3
3
3
3
1
1
1
1
1
1
1
1
1
1
3
3
2
1
1
2
1
1
1
1
1
1
1
1
1
1
3
2
1
1
1
1
1
1
3
1
1
1
1
1
1
1
1
1
2
2
1
1
1
1
1
1
1
1
3
2
1
1
1
1
1
1
1
1
2
1
1
1
1
1
1
1
1
1
2
2
1
1
1
1
1
1
2
3
1
1
1
1
1
1
1
1
1
2
3
2
2
2
2
3
3
1
1
1
1
1
1
1
1
1
2
3
1
1
1
1
1
1
1
1
1
2
2
1
1
1
1
2
1
1
1
1
1
1
1
1
1
3
2
1
1
1
1
1
1
1
1
1
1
1
1
1
1
1
2
3
1
1
1
1
1
1
1
1
2
3
2
1
1
1
1
2
1
1
1
1
1
1
1
1
1
1
3
3
2
2
3
1
1
1
1
1
1
1
1
1
1
3
1
1
1
1
1
1
1
1
1
1
2
2
1
1
1
1
1
1
1
1
1
3
3
1
1
1
1
1
1
1
1
2
2
1
1
1
1
1
1
2
3
2
2
1
1
1
2
3
3
2
1
1
1
1
1
1
1
1
1
2
2
1
1
1
1
1
1
1
1
1
2
2
2
2
2
2
1
1
1
1
1
1
1
1
1
2
2
1
1
1
1
1
2
3
3
1
1
1
1
1
1
1
1
1
2
3
1
1
1
1
1
1
1
2
2
1
1
1
1
1
1
1
2
2
1
1
1
1
1
1
1
1
2
2
1
1
1
1
1
2
3
1
1
1
1
1
1
1
1
1
2
3
2
2
2
3
1
1
1
1
1
1
1
1
1
2
3
3
2
1
1
1
1
1
1
1
1
2
2
1
1
1
1
2
3
1
1
1
1
1
1
1
2
3
1
1
1
1
1
1
1
2
2
1
1
1
1
1
2
3
2
1
1
1
1
1
1
1
1
2
3
2
2
2
2
3
1
1
1
1
1
1
1
1
1
2
1
1
1
1
1
1
1
1
1
1
3
3
3
1
1
1
1
1
1
1
1
1
2
1
1
1
1
1
2
2
1
1
1
1
1
1
1
1
2
1
1
1
1
1
1
1
2
1
1
1
1
1
1
1
2
3
2
1
1
1
1
1
1
1
1
3
3
2
1
1
1
1
2
3
1
1
1
1
1
1
1
1
1
2
3
2
2
3
1
1
1
1
1
1
1
1
1
2
3
3
3
2
1
1
1
1
1
1
1
1
3
2
1
1
1
1
1
3
2
1
1
1
1
1
1
1
2
1
1
1
1
1
1
1
1
2
2
1
1
1
1
1
2
3
2
1
1
1
1
1
1
1
1
1
2
2
1
2
2
3
1
1
1
1
1
1
1
1
1
1
2
1
1
1
1
1
1
1
1
1
1
2
1
1
1
1
1
1
1
1
1
1
2
1
1
1
1
1
1
1
1
1
1
2
2
1
1
1
1
1
1
1
1
2
1
1
1
1
1
1
1
1
3
2
1
1
1
1
2
3
3
3
3
1
1
1
1
1
1
1
1
1
3
3
1
1
1
1
1
1
1
1
1
2
3
1
1
1
1
1
1
1
1
1
3
2
1
1
2
2
3
2
1
1
1
1
1
1
1
2
3
2
1
1
1
1
1
2
3
2
3
3
1
1
1
1
1
1
1
2
1
1
1
1
1
1
1
2
1
2
3
2
1
1
1
2
2
3
1
1
1
1
1
1
1
2
1
2
3
3
3
3
3
1
1
1
1
1
1
1
2
1
2
3
1
1
1
1
1
1
1
2
2
3
2
1
1
2
3
2
1
1
1
1
1
2
3
3
3
1
1
1
1
1
1
3
2
2
1
1
2
3
1
1
1
1
1
1
1
2
3
3
3
3
1
1
1
1
1
1
1
1
3
2
1
1
1
1
1
1
1
1
2
3
2
1
1
1
1
1
1
1
1
2
2
2
2
3
1
1
1
1
1
1
1
2
3
3
1
1
1
1
1
2
2
1
1
1
1
1
1
2
2
1
1
1
1
1
1
3
3
2
1
2
2
3
3
1
1
1
1
1
1
1
2
3
3
3
1
1
1
1
1
1
1
2
3
3
3
1
1
1
1
1
1
1
2
2
1
1
1
1
1
3
2
1
1
1
1
1
2
3
1
1
1
1
1
1
1
1
2
2
2
1
1
2
3
2
1
1
1
1
1
1
1
1
1
3
3
3
3
1
1
1
1
1
1
1
1
1
1
3
1
1
1
1
1
1
1
1
1
1
2
1
1
1
1
1
1
1
1
1
1
2
1
1
1
1
1
1
1
1
1
1
3
2
1
1
1
1
1
1
1
1
2
2
1
1
1
1
1
1
1
3
2
1
1
1
1
2
3
3
3
3
2
1
1
1
1
1
1
1
2
3
2
2
2
3
2
1
1
1
1
1
1
1
2
3
2
2
2
2
1
1
1
1
1
1
1
2
3
3
3
1
2
2
1
1
1
1
1
1
1
2
3
2
2
2
3
1
1
1
2
1
1
1
1
1
2
2
1
1
1
2
2
1
1
1
3
3
2
2
2
3
3
1
1
1
1
1
2
1
1
1
2
2
2
2
3
2
1
1
1
1
2
3
1
1
1
3
2
1
1
1
2
3
2
1
1
1
2
2
1
1
2
2
1
1
1
2
3
2
2
2
2
3
1
2
2
2
2
2
2
3
2
1
1
2
2
3
3
3
3
3
3
2
1
1
1
1
2
2
2
2
3
2
1
1
2
3
2
1
1
1
1
1
2
3
2
1
1
1
1
2
2
1
1
1
1
1
1
2
1
1
1
1
1
2
2
1
1
1
1
1
1
2
2
1
1
1
1
2
3
2
1
1
1
1
2
3
3
2
2
2
2
1
1
2
3
3
2
2
2
2
3
2
2
1
2
2
2
3
3
3
3
3
3
2
1
1
1
2
2
3
2
1
1
1
2
2
2
1
1
1
2
3
2
1
1
1
1
2
3
2
2
2
2
3
2
1
1
1
1
1
1
1
3
3
2
2
3
1
1
1
1
1
1
1
1
2
3
2
1
2
3
2
1
1
1
1
1
1
1
1
1
3
2
1
1
1
2
1
1
1
1
1
1
1
1
1
1
2
2
1
1
1
2
1
1
1
1
1
1
1
1
1
1
3
2
1
1
2
2
2
1
1
1
1
1
1
1
1
1
3
3
2
3
3
1
1
1
1
1
1
1
1
2
2
2
3
2
1
1
1
1
1
1
2
3
3
1
1
1
2
3
2
2
2
2
2
2
3
2
1
1
1
1
2
2
1
1
1
1
2
2
1
1
1
1
1
2
3
1
1
1
1
1
1
2
2
1
1
1
1
1
2
3
1
1
1
1
1
1
2
1
2
2
1
1
1
1
1
2
2
1
1
1
1
2
3
1
1
1
3
2
1
1
1
2
3
2
2
2
2
3
1
1
1
2
3
2
2
2
3
3
3
1
1
1
1
2
1
1
1
2
3
3
3
3
1
1
1
1
2
1
1
1
1
1
2
3
2
3
3
1
1
1
1
1
1
1
1
1
1
1
3
3
3
1
1
1
2
3
1
1
1
1
1
1
1
3
2
2
3
1
1
1
3
1
1
1
1
1
1
1
3
1
1
1
1
1
2
1
2
3
3
3
2
3
2
1
1
1
1
1
2
2
1
1
1
1
1
1
2
3
2
2
2
2
2
1
1
1
2
1
1
1
1
1
1
1
1
3
2
2
2
2
3
3
3
3
1
1
1
1
1
1
1
1
3
2
2
2
2
3
1
1
1
1
1
1
1
2
3
2
2
3
2
1
1
1
1
1
1
2
2
1
1
1
1
2
3
3
3
2
2
3
3
3
3
2
2
2
2
3
2
2
2
1
1
1
1
1
1
2
1
1
1
1
1
3
1
1
1
1
1
1
1
1
3
1
1
1
1
1
1
2
3
1
1
1
1
1
1
1
1
2
1
1
1
1
1
1
1
3
2
1
1
1
1
1
1
1
1
2
1
1
1
1
1
1
1
3
2
1
1
1
1
1
1
1
1
2
1
1
1
1
1
1
1
3
1
1
1
1
1
1
1
1
2
2
1
1
1
1
1
2
2
1
1
2
3
3
2
1
1
1
1
1
1
1
3
2
2
2
2
3
1
1
1
1
1
1
2
2
3
3
2
1
1
1
1
1
2
2
1
1
1
1
1
1
2
2
3
2
2
2
2
3
1
1
1
1
1
1
1
2
2
1
1
1
1
1
1
1
3
2
2
3
1
1
1
1
1
1
1
1
2
2
3
2
2
2
3
1
1
1
1
1
1
1
1
2
1
1
2
3
2
2
3
2
1
1
1
1
1
1
1
3
1
1
1
2
3
3
3
1
1
1
1
1
1
3
1
1
1
1
2
1
1
1
2
2
2
2
2
3
1
1
1
1
2
1
1
1
1
1
1
1
1
1
1
1
2
2
1
1
1
1
1
1
1
2
1
1
1
1
2
1
1
1
1
1
1
1
1
1
1
1
1
1
3
1
1
1
1
1
1
1
1
1
2
1
1
1
1
2
1
1
1
2
1
1
1
1
1
1
1
1
2
1
1
1
1
1
1
1
2
1
1
2
2
1
1
1
1
1
1
1
2
3
1
1
1
1
1
1
1
1
3
2
3
1
1
1
1
1
1
2
2
1
1
1
1
1
1
1
1
2
2
1
1
1
2
1
1
1
1
1
1
1
1
1
2
2
1
1
1
1
1
1
1
1
2
3
1
1
1
1
1
1
1
1
3
2
1
1
1
1
1
1
2
2
1
1
1
1
2
3
3
3
3
3
1
1
1
1
1
3
3
2
1
1
1
2
1
1
1
1
1
1
1
3
1
1
1
1
1
1
2
1
1
1
1
1
1
1
1
2
2
1
1
1
1
1
1
1
3
1
1
1
1
1
1
1
1
1
1
1
1
1
1
1
1
1
3
1
1
1
1
1
1
1
1
1
3
2
1
1
1
1
1
1
1
3
1
1
1
1
1
1
1
1
2
2
2
3
1
1
2
2
1
1
1
1
1
1
2
3
2
1
1
1
1
1
1
1
2
1
1
1
1
1
2
1
1
1
2
3
2
1
1
1
1
1
2
2
1
1
1
1
1
2
1
1
1
1
1
1
1
1
1
1
1
3
2
2
1
2
2
3
2
2
2
3
3
1
1
1
1
1
1
1
1
1
1
1
3
3
2
1
1
1
1
1
1
1
1
1
1
2
2
1
1
1
1
1
1
1
1
1
1
1
1
1
1
1
1
1
3
2
3
2
1
1
1
1
1
1
1
1
1
1
1
1
3
1
1
1
1
1
1
1
1
2
1
1
1
2
3
2
3
2
1
1
1
1
1
1
1
3
1
1
1
1
3
2
1
1
1
1
1
2
2
1
1
1
1
2
3
1
1
1
1
2
2
1
1
1
1
1
1
1
2
3
3
3
1
1
1
1
2
1
1
1
1
1
1
1
1
1
1
1
1
1
2
2
1
1
1
1
1
1
1
1
1
3
3
2
2
3
1
1
1
1
2
2
1
1
1
1
1
1
1
1
1
2
3
1
1
1
1
1
1
3
1
1
1
2
2
1
1
1
1
1
1
1
1
1
2
1
1
1
1
1
1
1
1
3
1
1
2
3
1
1
1
1
1
1
1
1
1
3
1
1
1
1
1
1
1
1
1
2
2
2
2
1
1
1
1
1
1
1
2
1
1
1
1
1
1
1
1
1
1
2
1
1
1
1
1
2
1
1
1
1
1
1
1
1
1
1
3
3
2
2
2
3
1
1
1
1
1
1
1
1
1
1
1
1
1
1
1
1
1
1
1
2
3
1
1
1
1
1
1
1
1
3
2
2
3
2
1
1
1
1
1
1
3
2
1
1
2
2
2
2
2
2
1
1
2
3
2
1
1
2
2
2
2
2
2
1
1
1
1
1
1
1
3
2
3
1
1
1
1
1
1
1
1
2
3
2
2
2
3
3
1
1
1
1
1
1
1
1
1
3
2
2
1
1
1
2
3
2
1
1
1
1
1
1
1
1
1
2
2
1
1
1
1
2
3
2
1
1
1
1
1
1
1
1
1
2
1
1
1
3
2
1
1
1
1
2
3
3
1
1
1
1
1
1
1
1
1
3
3
1
1
1
2
3
1
1
1
1
3
3
2
1
1
2
2
3
1
1
1
1
1
1
1
1
2
2
1
1
1
1
1
1
1
1
1
1
2
2
2
2
2
3
2
1
1
1
1
1
1
1
3
3
1
1
1
1
1
1
1
1
1
1
1
1
3
3
3
2
1
1
1
2
3
1
1
1
1
1
1
1
1
1
1
1
1
1
3
3
3
1
1
1
1
1
1
1
1
1
1
1
1
2
1
1
1
1
1
1
1
1
1
1
1
1
1
1
1
1
1
1
2
2
2
1
1
1
1
1
1
1
1
1
1
3
1
1
1
2
1
1
1
1
1
1
1
1
1
3
1
1
1
1
3
2
1
2
3
1
1
1
1
1
1
1
1
2
1
1
1
1
2
1
1
1
1
1
1
1
1
1
1
1
1
1
2
1
1
1
1
2
1
1
1
1
1
1
1
1
2
3
2
2
2
3
1
1
1
1
2
2
1
1
1
1
1
1
1
1
1
3
1
1
1
1
1
1
1
1
1
1
1
1
1
1
1
2
2
1
1
2
3
1
1
1
1
2
1
1
1
1
1
1
1
1
1
1
2
2
1
1
1
1
1
1
2
1
1
1
2
1
1
1
1
1
1
1
1
1
1
2
2
1
1
1
1
1
1
1
1
3
1
1
1
3
2
1
1
1
1
1
1
1
1
1
2
1
1
1
1
1
1
1
1
1
2
2
2
3
1
1
1
1
1
1
1
1
2
3
1
1
1
1
1
1
1
1
1
1
3
3
1
1
1
1
1
1
2
3
3
1
1
1
1
1
1
1
1
1
1
3
2
2
2
2
2
3
1
1
1
1
1
1
1
1
1
1
3
1
1
1
1
1
1
1
1
1
2
1
1
1
1
3
2
1
1
1
1
1
1
1
1
3
1
1
1
1
1
1
3
2
1
1
1
1
1
1
2
2
1
1
1
1
1
1
2
3
2
2
2
2
3
2
1
1
1
1
1
1
2
1
1
1
1
2
2
1
1
1
1
1
1
2
2
1
1
1
1
1
1
1
3
1
1
1
1
1
2
3
1
1
1
1
1
1
1
1
1
2
1
1
2
3
2
1
1
1
1
1
1
1
1
1
2
3
1
1
1
1
1
1
1
1
1
1
2
1
1
2
3
3
3
1
1
1
1
1
1
1
1
1
1
2
1
1
1
1
3
3
3
2
1
1
1
1
1
1
1
1
1
2
2
1
1
1
1
2
1
1
1
1
2
3
3
3
1
1
1
1
1
1
1
1
1
3
1
1
1
1
1
1
1
1
1
1
1
1
3
2
1
1
1
1
1
1
1
2
2
1
1
1
1
1
1
1
1
1
1
1
1
2
2
1
1
1
1
1
2
1
1
1
1
1
1
1
1
1
1
1
1
1
2
3
2
2
2
3
3
1
1
1
1
1
1
1
1
1
1
1
1
1
2
3
1
1
1
1
1
1
1
1
1
1
1
1
1
1
1
1
1
1
2
2
3
1
1
1
1
1
1
1
1
1
1
2
1
1
2
2
1
1
1
1
1
1
1
1
1
3
1
1
1
2
2
1
1
2
2
1
1
1
1
1
1
1
1
2
1
1
1
1
3
1
1
1
1
1
1
1
1
1
1
1
1
1
2
1
1
1
1
2
1
1
1
1
1
1
1
1
1
2
2
2
2
3
1
1
1
1
2
2
1
1
1
1
1
1
1
1
1
2
1
1
1
1
2
1
1
1
1
1
1
1
1
1
1
2
2
1
1
2
3
1
1
1
1
3
1
1
1
1
1
1
1
1
1
1
2
2
1
1
1
1
1
1
2
1
1
1
2
1
1
1
1
1
1
1
1
1
1
2
2
1
1
1
1
1
1
1
1
3
1
1
2
3
2
1
1
1
1
1
1
1
1
1
1
1
1
1
1
1
1
1
1
1
1
2
2
1
1
1
1
1
1
1
1
2
3
1
1
1
1
1
1
1
1
1
1
3
3
1
1
1
1
1
1
2
3
3
1
1
1
1
1
1
1
1
1
1
3
2
2
1
2
2
3
3
1
1
1
1
1
1
1
1
1
1
3
1
1
1
1
3
1
1
1
1
1
1
1
1
1
2
3
1
1
1
1
1
1
2
2
1
1
1
1
1
1
1
1
3
1
1
1
1
1
1
1
1
3
2
1
1
1
1
1
1
2
3
1
1
1
1
1
1
1
1
2
3
2
2
2
2
3
3
1
1
1
1
1
1
1
1
2
3
1
1
1
1
2
3
3
1
1
1
1
1
1
1
1
2
2
1
1
1
1
1
1
1
2
1
1
1
1
1
1
1
1
3
1
1
1
1
1
1
1
1
1
3
3
1
1
1
1
1
1
2
1
1
1
1
1
1
1
1
1
1
2
3
2
1
1
2
3
1
1
1
1
1
1
1
1
1
1
2
1
1
1
3
1
1
1
1
1
1
1
1
1
1
2
1
1
1
1
2
1
1
1
1
1
1
1
1
1
1
2
2
1
1
1
1
2
1
1
1
1
1
3
2
1
1
1
1
1
1
1
1
1
2
1
1
1
1
1
1
1
1
1
1
1
1
2
2
1
1
1
1
1
1
1
2
1
1
1
1
1
1
1
1
1
1
1
1
1
2
2
1
1
1
1
1
2
1
1
1
1
1
1
1
1
1
1
1
1
1
2
3
2
2
2
3
3
1
1
1
1
1
1
1
1
1
1
1
1
1
2
3
3
3
3
1
1
1
1
1
1
1
1
1
1
1
1
1
1
1
1
1
1
2
3
1
1
1
1
1
1
1
1
1
1
2
1
2
3
2
1
1
1
1
1
1
1
1
1
3
1
1
1
3
3
2
2
2
3
1
1
1
1
1
1
1
1
2
1
1
1
2
1
1
1
1
1
1
2
1
1
1
1
1
1
2
1
1
1
1
3
1
1
1
1
1
1
1
1
2
2
2
2
2
3
1
1
1
1
3
2
1
1
1
1
1
1
1
1
1
3
1
1
1
1
3
1
1
1
1
1
1
1
1
1
1
2
2
2
2
2
1
1
1
2
1
1
1
1
1
1
1
1
1
1
2
3
1
1
1
1
1
1
3
1
1
1
2
2
1
1
1
1
1
1
1
1
1
2
3
1
1
1
1
1
1
1
1
3
1
2
2
2
1
1
1
1
1
1
1
1
1
2
1
1
1
1
1
1
1
1
1
2
3
3
1
1
1
1
1
1
1
1
2
1
1
1
1
1
1
1
1
1
1
3
2
1
1
1
1
1
2
3
1
1
1
1
1
1
1
1
1
1
3
3
2
2
3
2
2
2
2
1
1
1
1
1
1
1
1
1
1
3
1
1
1
1
1
2
3
1
1
1
1
1
1
1
1
1
2
1
1
1
1
1
1
1
1
3
3
1
1
1
1
1
1
1
1
3
2
1
1
1
1
1
1
1
1
2
2
1
1
1
1
1
1
2
1
1
1
1
1
1
1
1
1
1
3
2
2
2
2
3
1
1
1
1
1
1
1
1
1
1
2
1
1
1
2
1
1
1
1
1
1
1
1
1
1
3
1
1
1
1
1
1
1
3
2
1
1
1
1
1
1
1
1
2
1
1
1
1
1
1
1
1
1
1
1
1
1
1
1
1
1
3
2
1
1
1
1
1
1
1
1
1
2
2
1
1
1
1
2
3
1
1
1
1
1
1
1
1
1
1
2
1
1
1
3
3
2
2
3
1
1
1
1
1
1
1
1
1
1
2
1
1
1
1
2
2
1
1
1
1
1
1
1
1
1
2
2
1
1
1
2
2
1
1
1
1
1
2
3
1
1
1
1
1
1
1
1
1
3
2
1
1
1
1
1
1
1
1
1
1
1
2
2
1
1
1
1
1
1
1
2
2
1
1
1
1
1
1
1
1
1
1
1
1
1
2
1
1
1
1
1
2
1
1
1
1
1
1
1
1
1
1
1
1
1
1
3
2
2
3
3
1
1
1
1
1
1
1
1
1
1
1
1
1
2
3
2
1
2
3
1
1
1
1
1
1
1
1
1
1
1
1
1
1
1
1
1
1
3
2
1
1
1
1
1
1
1
1
1
3
2
3
2
1
1
1
1
1
1
1
1
2
1
1
2
3
2
3
2
1
1
1
1
1
1
1
3
1
1
1
3
2
1
1
1
1
1
2
2
1
1
1
1
2
2
1
1
1
2
2
1
1
1
1
1
1
1
2
3
2
2
3
1
1
1
2
1
1
1
1
1
1
1
1
1
1
1
1
2
2
1
1
1
1
1
1
1
1
1
3
3
3
1
1
1
3
2
1
1
1
1
1
1
1
1
1
2
2
1
1
1
1
2
1
1
2
2
1
1
1
1
1
1
1
1
1
3
1
1
1
1
1
1
1
2
2
2
1
1
1
1
1
1
1
1
2
3
2
1
1
1
1
1
1
1
1
2
2
1
1
1
1
1
1
1
2
2
1
1
1
1
1
1
1
1
2
2
1
1
1
1
1
2
1
1
1
1
1
1
1
1
1
2
2
1
1
2
2
2
2
3
2
1
1
1
1
1
1
1
1
2
2
1
1
1
1
1
1
2
2
1
1
1
1
1
1
1
1
2
3
1
1
1
1
1
1
1
1
2
2
1
1
1
1
1
1
2
1
1
1
1
1
1
1
1
1
1
2
1
1
1
1
2
3
1
1
1
1
1
1
1
1
1
1
3
3
3
3
3
1
1
1
1
1
1
1
1
1
1
3
3
2
2
2
3
1
1
1
1
1
1
1
1
1
1
3
1
1
1
1
1
1
2
1
1
1
1
1
1
1
1
1
2
2
1
1
1
1
1
1
1
2
3
1
1
1
1
1
1
1
1
2
3
1
1
1
1
1
1
1
1
1
3
2
1
1
1
1
1
1
2
2
1
1
1
1
1
1
1
1
1
3
1
1
2
3
2
2
2
2
3
2
1
1
1
1
1
1
1
1
1
2
1
1
1
1
2
3
1
1
1
1
1
1
1
1
1
3
2
2
2
2
1
1
1
1
1
3
1
1
1
1
1
1
1
1
2
3
1
1
1
1
1
1
1
1
1
1
1
2
3
1
1
1
1
1
1
1
3
1
1
1
1
1
1
1
1
1
1
1
1
1
3
2
1
1
1
2
3
2
1
1
1
1
1
1
1
1
1
1
1
1
1
3
3
3
1
1
1
1
1
1
1
1
1
1
1
1
1
2
2
1
1
1
2
1
1
1
1
1
1
1
1
3
1
1
1
1
1
1
1
1
2
3
1
1
1
1
1
1
1
1
2
2
1
1
1
1
1
1
1
2
2
3
3
1
1
1
1
1
1
2
1
2
3
2
2
1
2
2
3
2
2
2
2
2
1
1
2
2
1
1
1
1
1
2
3
1
1
2
2
1
1
1
1
1
1
1
2
1
2
2
1
1
1
1
1
1
1
1
2
1
2
3
1
1
1
1
1
1
1
1
2
2
2
2
2
2
3
2
1
1
1
1
1
1
1
2
2
1
1
1
1
2
2
1
1
1
1
1
1
1
2
2
1
1
1
1
1
1
2
2
1
1
1
1
1
2
1
1
1
1
1
1
1
1
3
2
2
2
2
2
3
1
1
1
1
1
1
1
1
3
3
1
1
1
1
3
3
1
1
1
1
1
1
1
2
3
2
1
1
1
1
1
1
2
2
1
1
1
1
1
1
2
2
1
1
1
1
1
1
1
1
2
3
2
1
1
1
1
2
3
1
1
1
1
1
1
1
1
1
1
3
3
2
2
2
2
3
1
1
1
1
1
1
1
1
1
1
3
3
1
1
1
1
1
1
1
1
1
1
2
3
1
1
1
1
1
1
1
1
1
1
3
3
2
1
1
1
2
3
1
1
1
1
1
1
1
1
1
1
1
1
1
1
1
1
2
3
1
1
1
1
1
1
1
1
2
2
1
1
1
1
1
1
1
2
2
1
1
1
1
1
1
2
1
1
1
1
1
1
1
1
2
1
1
2
3
2
2
2
2
3
1
1
1
1
1
1
1
1
2
1
1
1
1
3
2
1
1
1
1
1
1
1
2
1
1
1
1
1
2
2
2
3
3
1
1
1
1
1
1
2
3
3
2
1
1
2
3
1
1
1
1
1
2
2
1
1
1
2
3
2
1
1
1
1
2
2
3
1
1
1
1
1
1
1
1
1
1
1
2
2
1
1
1
2
3
3
2
2
2
3
1
1
1
1
1
1
1
1
1
1
1
1
2
2
1
1
1
2
3
3
1
1
1
1
1
1
1
1
1
1
1
1
2
2
2
2
3
2
2
1
2
3
3
1
1
1
1
1
1
1
2
1
1
1
1
1
1
2
3
2
1
1
1
1
1
1
2
3
2
1
1
1
1
1
2
3
2
2
1
2
2
3
3
3
3
2
3
2
2
2
2
2
2
3
3
3
2
1
1
1
1
1
2
3
2
1
2
2
2
1
1
1
1
1
2
3
2
1
1
1
2
2
1
1
1
1
1
2
3
2
1
1
1
2
3
2
1
1
1
1
1
2
3
3
2
2
3
3
2
1
2
2
2
1
1
1
1
2
2
2
1
1
1
2
2
3
2
2
2
2
2
2
2
3
2
1
1
1
1
2
3
3
3
3
3
1
1
1
1
1
2
3
2
1
1
2
3
3
2
1
1
1
1
2
3
2
1
1
1
1
1
1
2
2
2
1
1
2
2
3
1
1
1
1
1
1
1
1
2
3
3
2
2
2
2
1
1
1
1
1
1
1
1
1
1
3
2
2
2
1
1
1
1
1
1
1
1
1
1
3
3
2
2
2
1
1
1
1
1
1
1
1
1
1
3
3
3
3
1
1
1
1
1
1
1
1
1
1
3
3
3
3
2
1
1
1
1
1
1
1
1
2
2
1
1
1
2
3
3
1
1
1
1
1
1
1
1
2
2
1
1
1
1
1
2
2
1
1
1
1
1
1
2
1
1
1
1
1
1
2
2
2
3
2
2
2
2
3
3
3
3
1
1
1
1
1
1
2
3
1
1
1
2
2
1
1
1
1
3
2
1
1
1
1
1
2
1
1
1
1
2
2
1
1
1
1
1
1
2
2
1
1
1
2
3
3
1
1
1
1
2
1
1
1
1
1
1
1
2
3
2
2
2
3
3
3
3
2
2
2
2
3
1
1
1
1
1
3
1
1
1
1
1
1
1
2
3
3
2
1
1
1
1
2
1
1
1
1
1
3
1
1
1
1
1
1
1
2
3
3
3
1
1
1
1
1
2
1
1
1
1
2
3
2
1
1
1
1
1
2
2
2
2
3
1
1
1
1
1
2
3
2
1
1
2
2
2
1
1
1
1
2
3
3
2
2
2
2
2
3
2
2
2
3
3
2
2
2
3
3
2
1
2
3
3
1
1
1
1
2
2
2
2
3
1
1
1
1
1
3
1
1
1
1
1
2
3
2
3
2
1
1
1
1
2
3
1
1
1
1
1
1
1
3
2
2
2
2
2
1
1
1
2
1
1
1
1
1
1
1
3
2
2
2
2
2
2
2
2
1
1
1
1
1
1
1
2
3
2
2
2
3
1
1
1
1
1
1
1
3
3
3
2
3
3
2
1
1
1
1
1
2
3
3
3
3
3
2
1
2
2
3
2
2
3
3
2
2
3
3
2
3
3
3
3
1
1
1
1
1
1
3
3
1
1
1
2
3
3
3
1
1
1
1
1
1
1
1
3
1
1
1
1
1
1
3
2
1
1
1
1
1
1
1
1
2
1
1
1
1
1
1
2
1
1
1
1
1
1
1
1
1
1
3
1
1
1
1
1
1
2
1
1
1
1
1
1
1
1
1
1
3
2
1
1
1
1
1
3
2
1
1
1
1
1
1
1
1
2
3
2
2
2
2
2
2
1
1
1
1
1
1
1
1
2
3
1
1
1
1
1
1
1
2
3
3
2
2
2
3
2
1
1
1
1
1
3
3
2
2
2
3
3
2
2
3
1
1
1
1
2
3
2
2
2
2
2
2
2
3
1
1
1
1
1
1
1
3
3
2
2
2
3
2
1
2
2
1
1
1
2
2
1
1
1
1
1
1
1
1
3
3
3
2
1
1
1
1
3
1
1
1
1
3
1
1
1
1
1
1
1
1
1
3
1
1
1
1
1
2
1
1
1
1
2
1
1
1
1
1
1
1
1
1
3
3
1
1
1
1
1
2
3
3
3
1
1
1
1
2
1
1
1
1
1
1
1
1
1
3
2
1
1
1
1
2
3
2
2
3
1
1
1
1
3
2
1
1
1
1
1
1
1
2
3
2
1
1
2
3
3
2
2
3
2
1
1
1
1
1
1
1
3
2
1
1
1
1
1
2
1
1
1
1
2
2
1
1
2
2
1
1
1
1
1
1
2
3
3
3
1
1
1
1
1
1
1
3
1
1
1
1
1
2
2
1
1
1
1
1
1
1
2
1
1
1
1
1
1
1
2
2
1
1
1
1
1
1
1
3
1
1
1
1
1
1
1
1
3
1
1
1
1
1
1
1
3
1
1
1
1
1
1
1
1
3
2
1
1
1
1
1
2
1
1
1
1
1
1
1
1
3
3
2
2
2
3
1
1
1
1
1
1
1
1
1
1
1
1
1
1
1
2
2
1
1
1
1
1
2
3
3
3
2
2
2
3
2
1
1
1
1
2
3
2
1
1
2
2
2
1
1
1
1
1
1
2
3
1
1
1
1
1
1
2
1
1
1
1
1
1
1
1
3
1
1
1
1
1
1
1
1
3
1
1
1
1
1
1
1
1
2
3
1
1
1
1
1
1
1
1
2
1
1
1
1
1
1
1
1
2
2
1
1
1
1
1
1
1
1
2
1
1
1
1
1
1
1
1
3
3
1
1
1
1
1
1
1
1
2
2
1
1
1
1
1
1
2
1
1
1
1
1
1
1
2
3
2
1
1
1
1
2
2
3
1
1
1
1
1
1
2
3
3
2
3
3
2
2
2
2
2
3
2
2
3
2
3
2
1
1
1
1
1
2
3
1
1
1
2
2
2
1
1
1
1
1
1
1
2
3
1
1
1
1
1
1
2
3
3
1
1
1
1
1
1
1
1
1
3
1
1
1
1
1
1
1
2
2
2
2
3
1
1
1
1
1
1
1
1
1
2
3
1
1
1
1
1
1
1
1
1
1
2
3
3
1
1
1
1
1
1
1
1
1
2
3
1
1
1
1
1
1
1
1
1
1
2
3
3
1
1
1
1
1
1
1
1
1
2
1
1
1
1
1
1
1
2
2
2
2
3
1
1
1
1
1
1
1
1
1
2
2
1
1
1
1
1
1
3
1
1
1
1
1
1
1
1
2
2
1
1
1
2
2
1
1
1
1
1
1
1
2
1
1
1
1
1
1
2
2
1
1
1
1
1
2
1
1
1
1
1
1
1
1
2
3
2
2
2
3
2
1
1
2
2
1
1
1
1
1
1
1
1
1
1
1
1
1
1
1
1
3
1
1
1
1
1
1
1
1
1
1
1
1
1
1
1
1
1
1
1
1
1
1
1
1
1
1
1
1
1
1
1
1
1
1
2
1
1
1
1
1
1
1
1
2
1
1
1
1
1
1
1
1
2
2
1
1
1
1
1
1
1
3
1
1
1
1
1
1
1
1
2
2
1
1
1
1
1
2
1
1
1
1
1
1
1
1
2
2
2
2
1
1
1
1
1
1
1
1
3
1
1
1
1
1
1
1
2
1
1
1
1
2
2
1
1
1
2
3
2
1
1
1
1
1
1
2
3
3
3
1
1
1
1
1
1
1
1
2
3
2
1
1
2
2
2
1
1
1
1
1
1
1
1
2
3
2
1
1
1
1
2
3
1
1
1
1
1
1
1
1
1
1
2
1
1
1
1
1
1
2
1
1
1
1
1
1
1
1
1
1
2
1
1
1
1
1
1
2
2
1
1
1
1
1
1
1
1
2
2
2
1
1
1
1
1
1
2
1
1
1
1
1
1
1
1
3
1
2
2
1
1
1
1
2
3
3
1
1
1
1
1
1
2
1
1
2
3
2
2
2
2
3
2
2
2
2
3
1
1
1
3
3
3
2
1
1
2
3
2
2
3
1
1
1
1
1
1
1
1
1
1
3
3
1
1
1
1
1
2
1
1
2
1
1
1
1
1
1
1
1
1
3
1
1
1
1
1
1
1
2
1
2
3
1
1
1
1
1
1
1
1
1
2
1
1
1
1
1
1
1
1
1
3
3
2
1
1
1
1
1
1
1
1
1
1
1
1
1
1
1
1
1
1
1
2
2
1
1
1
1
1
1
1
1
1
1
1
1
1
1
1
1
1
1
1
2
2
1
1
1
1
1
1
1
1
1
2
1
1
1
1
1
1
1
1
1
2
3
1
1
1
1
1
1
1
1
1
2
2
1
1
1
1
1
1
1
1
3
2
2
1
1
1
1
1
1
1
1
1
3
2
1
1
1
1
1
3
1
1
1
1
1
1
1
1
2
2
1
1
1
1
1
1
1
3
2
1
1
1
1
1
1
1
3
1
1
1
1
1
1
1
1
1
3
2
1
1
1
2
3
1
1
1
1
1
3
2
1
1
1
1
1
1
1
1
1
3
1
1
1
1
1
1
1
2
2
1
1
1
1
1
1
1
1
1
2
1
1
1
1
1
1
1
1
3
2
1
1
1
1
1
1
1
1
1
2
1
1
1
1
1
1
1
1
2
2
1
1
1
1
1
1
1
1
1
3
1
1
1
1
1
1
1
1
1
1
1
1
1
1
1
1
1
2
1
1
1
1
1
1
1
1
1
3
1
1
1
1
1
1
2
3
1
1
1
1
1
1
1
1
2
2
2
1
2
2
1
1
1
1
1
1
1
1
2
3
3
1
1
1
1
1
1
1
2
2
1
1
1
1
2
2
1
1
1
1
1
2
1
1
1
1
1
1
1
1
3
3
2
3
3
2
1
1
1
1
1
1
1
1
2
1
1
1
1
1
1
1
1
1
1
3
3
2
2
3
1
1
1
1
1
1
1
1
1
1
3
3
2
2
2
2
3
1
1
1
1
1
1
1
1
1
1
3
3
3
2
2
2
2
3
1
1
1
1
1
1
1
1
1
1
3
1
1
3
3
2
2
2
2
3
2
1
1
1
1
1
1
1
1
2
1
1
1
3
3
2
2
3
2
1
1
1
1
1
1
2
3
1
1
1
2
2
1
1
1
1
2
1
1
1
2
3
1
1
1
2
3
3
2
1
1
1
2
3
1
1
1
2
1
1
1
1
1
1
1
2
1
1
1
1
1
1
1
2
1
1
1
2
1
1
1
1
1
1
1
1
1
3
2
1
1
1
1
1
1
1
1
3
1
1
1
3
3
1
1
1
1
1
1
1
1
1
2
1
1
1
1
1
1
1
1
1
2
1
2
3
2
1
1
1
1
1
1
1
1
1
1
3
1
1
1
1
1
1
1
1
1
1
3
2
1
1
1
1
1
1
1
1
1
1
3
1
1
1
1
1
1
1
1
1
1
2
1
1
1
1
1
1
1
1
1
1
1
1
1
1
1
1
1
1
1
2
3
1
1
1
1
1
1
1
1
1
2
1
1
1
1
1
1
1
1
1
2
1
1
1
2
1
1
1
1
1
1
1
1
1
1
1
1
1
1
1
1
2
3
1
1
1
1
1
1
1
1
1
3
1
1
1
1
1
1
1
1
2
2
1
1
1
1
1
1
1
2
3
3
1
1
1
1
1
1
1
1
1
3
2
1
1
1
1
2
3
3
3
1
1
1
1
1
2
1
1
1
1
1
1
1
1
1
1
2
3
3
3
1
1
1
1
1
1
1
2
1
1
1
1
1
1
1
1
1
1
2
1
1
1
1
1
1
1
1
3
1
1
1
1
1
1
1
1
1
1
2
1
1
1
1
1
1
1
1
2
2
1
1
1
1
1
1
1
1
1
2
1
1
1
1
1
1
1
1
1
3
1
1
1
1
1
1
1
1
1
3
1
1
1
1
1
1
1
1
1
2
1
1
1
1
1
1
1
2
1
1
1
1
1
1
1
1
2
3
2
1
1
1
2
3
1
1
1
1
1
1
1
1
2
2
1
2
3
1
1
1
1
1
1
1
2
1
1
1
1
1
1
3
2
1
1
1
1
1
2
1
1
1
1
1
1
1
1
3
3
2
2
3
1
1
1
1
1
1
1
1
1
1
1
1
1
1
1
1
1
1
1
1
3
1
1
1
1
1
1
1
1
1
1
2
1
1
1
1
1
1
1
1
1
1
2
1
2
1
1
1
1
1
1
1
1
1
1
3
1
1
1
2
1
1
1
1
1
1
1
1
2
1
1
1
2
1
1
1
1
1
1
1
1
3
1
1
1
1
3
2
1
1
1
1
2
3
1
1
1
1
2
3
2
1
2
2
3
3
2
1
1
1
1
2
1
1
1
1
2
2
1
1
1
1
1
1
3
1
1
1
1
1
1
1
2
1
1
1
1
3
2
1
1
1
1
1
1
1
1
1
1
1
1
1
1
1
1
1
2
1
1
1
2
1
1
1
1
1
1
1
1
1
2
3
1
1
1
1
1
1
1
1
1
1
1
1
2
3
2
1
1
1
1
1
1
1
1
1
2
2
1
1
1
1
1
1
1
1
1
1
3
2
2
2
1
1
1
1
1
1
1
1
1
2
2
1
1
1
1
1
1
1
1
1
1
3
2
1
1
1
1
1
1
1
1
1
2
3
1
1
1
1
1
1
1
1
1
1
1
1
1
1
1
1
1
1
1
2
1
1
1
1
1
1
1
1
1
2
1
1
1
2
1
1
1
1
1
1
1
1
1
2
1
1
1
1
1
1
2
3
1
1
1
1
1
1
1
1
1
2
1
1
1
1
1
1
1
1
2
2
1
1
1
1
1
1
1
2
3
2
1
1
1
1
1
1
1
1
1
3
2
2
1
1
1
2
3
3
2
1
1
1
2
3
1
1
1
1
1
1
1
1
1
1
2
3
3
3
1
1
1
1
1
1
1
2
1
1
1
1
1
1
1
1
1
1
2
1
1
1
1
1
1
1
1
3
1
1
1
1
1
1
1
1
1
1
2
1
1
1
1
1
1
1
1
2
2
1
1
1
1
1
1
1
1
1
2
1
1
1
1
1
1
1
1
2
3
1
1
1
1
1
1
1
1
1
3
1
1
1
1
1
1
1
1
2
2
1
1
1
1
1
1
1
2
1
1
1
1
1
1
1
1
2
3
2
1
1
1
2
3
1
1
1
1
1
1
1
1
3
3
2
2
3
3
1
1
1
1
1
1
1
2
1
1
1
1
1
1
3
2
2
1
1
1
1
2
1
1
1
1
1
1
1
1
3
3
3
3
3
2
1
1
1
1
1
1
1
1
2
1
1
1
1
1
1
1
1
1
1
3
1
1
1
1
1
1
1
1
1
1
2
1
1
1
1
1
1
1
1
1
1
2
1
1
3
1
1
1
1
1
1
1
1
1
1
3
1
1
1
2
2
1
1
1
1
1
1
1
1
2
1
1
1
1
3
2
1
1
1
1
1
1
2
3
1
1
1
1
2
2
1
1
1
2
2
3
1
1
1
1
2
3
2
3
3
3
2
1
1
1
1
2
1
1
1
1
2
3
1
1
1
1
1
2
1
1
1
1
1
1
1
2
1
1
1
1
2
3
1
1
1
1
1
1
1
2
1
1
1
1
1
1
1
1
1
2
1
1
1
1
3
1
1
1
1
1
1
1
1
1
3
1
1
1
1
1
1
1
1
1
1
1
1
1
2
1
1
1
1
1
1
1
1
1
2
2
1
1
1
1
1
1
1
1
1
1
3
1
2
3
3
1
1
1
1
1
1
1
1
1
2
2
1
1
1
1
1
1
1
1
1
1
3
3
1
1
1
1
1
1
1
1
1
2
3
1
1
1
1
1
1
1
1
1
1
2
1
1
1
1
1
1
1
1
3
1
1
1
1
1
1
1
1
1
2
2
2
2
2
3
2
2
2
2
1
1
1
1
1
1
1
1
1
3
2
1
1
1
1
1
2
1
1
1
1
1
1
1
1
2
2
1
1
1
1
1
1
1
2
3
1
1
1
1
1
1
2
3
3
1
1
1
1
1
1
1
1
1
3
3
2
1
1
2
2
3
3
2
1
2
2
2
1
1
1
1
1
1
1
1
1
2
2
1
1
1
1
1
1
3
1
1
1
1
1
1
1
1
1
1
2
1
1
1
1
1
1
1
2
2
1
1
1
1
1
1
1
1
1
2
1
1
1
1
1
1
1
1
3
2
1
1
1
1
1
1
1
1
1
3
1
1
1
1
1
1
1
1
2
1
1
1
1
1
1
1
1
2
1
1
1
1
1
1
1
1
2
3
1
1
1
1
1
1
2
3
1
1
1
1
1
1
1
1
2
3
2
1
1
2
2
3
1
1
1
1
1
1
1
2
3
1
1
1
1
1
1
2
3
2
1
1
1
1
2
2
2
1
2
2
3
2
1
1
1
1
1
1
2
3
3
2
2
3
3
1
1
1
1
1
1
1
1
2
2
1
1
1
1
3
2
1
1
1
1
1
1
1
1
1
2
1
1
1
1
2
1
1
1
1
1
1
1
1
1
1
3
3
2
1
1
1
1
2
1
1
1
1
1
1
1
1
1
1
3
1
1
2
2
1
1
1
2
3
2
1
1
1
1
1
1
1
1
2
1
1
1
2
2
2
2
3
3
1
1
1
1
1
1
1
1
2
1
1
1
1
3
2
1
1
1
1
1
1
2
1
1
1
1
2
3
2
2
1
2
2
1
1
1
1
2
2
1
1
1
2
3
1
1
1
1
2
3
2
1
2
2
1
1
1
1
1
1
1
2
1
1
1
1
2
2
1
1
1
1
1
2
3
2
1
1
1
1
1
1
1
1
3
1
1
1
1
3
3
1
1
1
1
1
1
1
2
1
1
1
1
1
1
1
1
1
2
1
1
1
2
2
1
1
1
1
1
1
1
2
3
1
1
1
1
1
1
1
1
1
2
1
2
2
2
1
1
1
1
1
1
1
1
3
3
1
1
1
1
1
1
1
1
1
1
3
2
1
1
1
1
1
1
1
2
1
1
1
1
1
1
1
1
1
2
3
1
1
1
1
1
1
1
2
2
1
1
1
1
1
1
1
1
2
1
1
1
1
2
3
1
1
1
1
1
1
1
1
2
3
2
3
2
1
1
1
2
2
1
1
1
1
1
1
1
2
1
1
1
1
1
1
1
2
1
1
1
1
1
2
1
1
1
1
1
1
1
1
2
3
2
2
2
3
3
3
3
1
1
1
1
1
1
1
1
1
3
2
1
1
1
2
3
3
1
1
1
1
1
1
1
1
1
3
1
1
1
1
1
1
1
3
3
1
1
1
1
1
1
1
1
1
3
1
1
1
1
1
1
1
2
3
1
1
1
1
1
1
1
1
2
3
1
1
1
1
1
1
1
2
2
1
1
1
1
1
1
1
2
1
1
1
1
1
1
1
2
3
2
1
1
1
1
1
2
1
1
1
1
1
1
1
2
3
2
2
2
3
1
1
1
1
1
1
1
2
3
2
1
1
1
2
3
2
2
2
2
3
2
2
2
1
1
1
2
1
1
1
1
1
1
3
1
1
1
1
1
1
1
1
1
1
1
1
1
1
3
1
1
1
1
1
1
1
2
3
1
1
1
1
1
1
1
1
2
1
1
1
1
1
1
1
2
2
1
1
1
1
1
1
1
1
2
3
1
1
1
1
1
1
1
2
2
1
1
1
1
1
1
1
1
2
2
2
2
2
1
1
2
1
1
1
1
1
1
1
2
3
1
1
1
1
1
1
1
1
2
3
1
1
1
1
3
1
1
1
2
3
1
1
1
1
1
2
3
2
1
1
1
1
1
1
2
3
3
1
1
1
1
2
1
1
1
1
3
3
2
1
1
2
3
2
1
1
1
1
2
3
3
2
1
1
2
3
1
1
1
1
2
3
2
2
3
3
3
2
2
3
1
1
1
1
2
3
2
2
3
1
1
1
1
2
3
1
1
1
1
1
2
1
1
1
1
2
3
2
2
2
2
1
1
1
1
1
1
1
2
1
1
1
1
3
3
2
1
1
1
1
2
2
1
1
1
1
1
1
1
1
3
1
1
1
2
2
1
1
1
1
1
2
3
1
1
1
1
1
1
1
1
1
2
1
2
2
2
1
1
1
1
1
2
3
1
1
1
1
1
1
1
1
1
2
3
2
1
1
1
1
1
2
3
2
1
1
1
1
1
1
1
1
2
3
2
1
1
1
2
2
3
1
1
1
1
1
1
1
2
3
1
1
1
1
1
2
2
1
1
1
1
1
1
2
3
2
2
2
2
3
3
2
3
2
1
1
1
1
1
2
3
1
1
1
1
2
3
2
2
2
2
2
3
1
1
1
1
1
1
2
3
3
2
2
3
2
3
2
1
1
1
1
1
1
1
2
2
1
1
2
3
2
3
2
2
3
2
1
1
1
1
1
1
1
2
3
2
1
1
2
2
1
1
1
2
3
3
3
3
2
1
1
1
1
1
1
1
2
2
2
2
3
2
1
1
1
1
1
2
2
1
1
1
1
1
1
1
2
3
2
1
1
1
1
1
2
3
2
1
1
1
1
1
2
2
1
1
1
1
1
2
3
2
2
1
2
2
3
2
1
1
1
1
1
2
3
3
3
2
1
1
1
2
3
3
2
2
2
3
2
1
2
2
1
1
1
1
1
1
2
1
1
2
3
1
1
1
1
1
1
1
1
2
1
1
1
1
2
3
2
1
1
1
1
1
1
1
1
3
2
1
1
1
1
1
1
2
2
2
1
1
1
1
1
1
1
1
1
2
2
1
1
1
1
1
1
2
3
2
1
1
1
1
2
1
1
1
1
1
1
1
1
1
2
2
1
1
1
1
1
1
1
2
1
1
1
1
1
1
3
1
2
3
2
1
1
1
1
1
1
1
1
3
2
1
1
1
1
1
1
2
1
1
1
1
1
1
1
2
1
1
1
1
1
1
1
1
1
1
1
2
2
1
1
1
1
2
3
1
1
1
1
1
1
1
2
1
1
1
1
3
1
1
1
1
1
2
3
2
2
2
2
3
2
1
1
1
1
1
1
2
1
1
1
1
3
2
2
2
2
1
1
1
1
1
1
3
1
1
1
1
2
3
2
1
1
2
3
1
1
1
1
2
3
3
3
2
1
2
3
3
3
1
1
1
1
3
2
2
2
3
3
1
1
1
1
1
2
3
1
1
1
2
3
3
3
2
1
2
2
1
1
1
1
1
1
1
2
1
1
2
3
3
2
2
2
3
3
2
2
2
3
1
1
1
1
1
1
1
2
2
2
3
3
2
2
2
2
3
3
3
1
1
1
1
1
1
1
2
3
2
2
2
3
1
1
1
1
1
1
1
2
3
3
3
2
1
1
1
1
1
2
3
1
1
1
1
1
2
3
2
1
1
1
1
2
3
2
1
1
2
2
3
2
1
1
2
2
2
1
1
2
3
3
2
2
2
2
3
3
3
1
1
2
3
3
2
3
3
3
3
3
2
1
1
1
2
3
1
1
1
1
2
2
1
1
2
2
3
1
1
1
1
1
1
1
1
1
1
1
2
2
1
1
1
1
2
2
2
1
1
1
1
1
1
1
1
1
1
1
1
2
1
1
1
1
1
2
1
1
1
1
1
1
1
1
1
1
1
1
3
2
1
1
1
1
1
2
2
1
1
1
1
1
3
2
2
2
1
1
1
1
2
2
2
1
1
2
2
3
1
1
1
1
1
3
2
2
2
3
2
2
3
2
2
2
2
3
2
2
2
2
3
2
2
2
3
3
3
3
3
3
2
2
2
3
3
2
2
3
3
3
3
3
2
2
3
2
1
1
1
1
2
3
3
1
1
1
1
1
1
1
2
2
1
1
1
1
1
1
1
1
2
3
2
2
3
1
1
1
1
1
1
1
1
1
2
3
2
2
2
2
2
2
1
1
1
1
2
1
1
1
1
1
1
1
1
1
1
2
2
1
1
2
2
2
1
1
1
1
1
1
2
1
1
1
1
1
1
1
1
1
1
2
2
1
1
2
2
1
1
1
1
1
1
1
1
3
2
3
1
1
1
1
1
1
1
1
1
2
3
2
2
2
2
3
2
1
1
1
1
1
1
1
1
2
1
1
2
2
1
1
1
1
1
1
1
1
2
3
2
2
3
2
1
1
1
1
1
1
1
1
2
1
1
1
2
1
1
1
1
1
1
1
2
2
1
1
1
1
1
1
1
1
2
1
1
1
2
2
1
1
1
2
2
1
1
1
1
1
1
1
1
3
1
1
1
1
3
3
2
1
1
2
3
1
1
1
1
1
1
2
1
1
1
1
3
1
1
1
1
1
2
3
2
1
1
2
3
1
1
1
2
2
1
1
1
1
1
1
3
2
2
2
3
1
1
1
2
2
1
1
1
1
1
1
2
2
2
1
1
2
3
1
2
2
2
1
1
1
1
1
1
1
2
1
1
1
1
2
3
3
3
1
1
1
1
1
2
3
2
1
1
1
1
2
3
2
1
1
2
3
2
1
1
1
2
2
3
3
3
2
2
2
2
3
1
1
1
1
1
2
3
1
1
1
1
1
1
1
2
3
2
1
1
2
2
2
1
1
1
3
2
1
1
1
1
1
1
2
2
1
1
1
1
1
1
1
1
1
1
2
2
1
1
1
1
2
1
1
1
1
1
1
2
1
1
1
1
1
1
1
3
3
2
2
2
3
1
1
1
1
1
1
1
1
1
1
1
1
1
1
2
3
3
3
2
1
1
1
1
1
1
1
1
1
1
1
1
1
1
2
3
2
2
2
3
2
1
1
1
1
1
1
1
1
1
1
1
1
1
1
2
3
3
2
3
3
2
1
1
1
1
1
1
3
1
1
1
1
1
1
2
3
3
3
3
1
1
1
1
1
1
2
1
1
1
1
2
3
3
2
1
1
1
3
3
1
1
1
1
1
3
2
2
3
1
1
1
1
1
2
2
2
2
2
3
1
1
1
1
1
1
3
3
3
3
1
1
1
1
1
1
3
1
1
1
1
1
2
2
1
1
1
1
2
1
1
1
1
1
1
1
1
3
2
1
1
2
3
1
1
1
1
1
1
1
1
1
2
3
3
2
2
2
2
1
1
1
1
1
1
1
1
1
1
3
1
1
1
1
1
1
2
3
1
1
1
1
1
1
1
1
1
1
3
3
1
1
1
1
1
1
1
1
3
3
1
1
1
1
1
1
1
1
1
1
3
3
1
1
1
1
1
1
1
1
1
2
3
1
1
1
1
1
1
1
1
1
1
1
1
1
1
1
1
1
1
1
1
2
3
1
1
1
1
1
1
1
1
1
2
1
1
1
1
1
1
1
1
1
1
1
1
2
3
1
1
1
1
1
1
1
2
1
1
1
1
1
1
1
1
1
2
1
1
2
3
3
2
1
1
1
1
2
3
2
1
1
2
2
1
1
1
1
1
1
1
1
2
1
1
1
3
3
3
3
3
3
1
1
1
1
1
1
1
1
1
1
1
1
1
2
3
1
1
1
3
1
1
1
1
1
1
1
2
2
1
1
1
1
2
3
1
1
2
3
2
1
1
1
1
1
1
1
1
3
3
3
3
1
2
2
2
1
1
1
1
1
1
1
1
3
2
3
2
1
1
1
1
1
1
1
1
3
3
3
3
1
1
1
1
1
1
1
2
3
3
3
3
2
1
1
1
1
1
1
3
3
3
3
2
1
1
2
3
3
2
2
3
1
1
1
1
1
2
1
1
2
2
1
1
1
1
1
1
1
1
2
1
1
1
2
2
2
2
2
3
1
1
1
1
1
1
3
3
1
1
1
1
1
1
1
1
3
2
1
1
1
1
1
1
1
1
1
1
1
1
1
3
2
1
1
1
1
1
1
2
3
1
1
1
1
1
1
1
1
1
1
1
1
1
1
2
2
1
1
1
1
2
1
1
1
1
1
1
1
2
1
1
1
1
1
1
1
1
1
3
3
3
3
1
1
1
1
1
1
1
2
1
1
1
1
1
1
1
1
1
3
1
1
1
1
1
1
1
2
1
1
1
1
1
1
1
1
1
3
3
1
1
1
1
1
1
1
1
1
1
1
1
1
1
1
2
2
1
1
1
1
2
2
1
1
1
1
1
1
2
1
1
1
1
1
1
2
2
1
1
1
1
1
1
2
1
1
1
1
1
1
3
2
1
1
1
2
1
1
1
1
1
1
1
1
2
1
1
1
2
3
1
1
1
1
1
1
1
1
3
3
3
3
3
3
1
1
1
1
1
1
1
1
3
1
1
1
1
1
2
1
1
1
1
1
1
1
2
1
1
1
1
1
1
1
1
2
1
1
1
1
1
1
2
1
1
1
1
1
1
1
1
1
2
2
1
1
1
2
2
3
1
1
1
1
3
1
1
1
1
1
1
1
1
1
1
3
3
2
1
1
1
1
1
1
2
2
1
1
1
1
1
1
1
1
1
1
3
2
1
1
1
1
1
1
1
1
2
2
1
1
1
1
1
1
1
1
1
1
3
1
1
1
1
1
1
1
1
1
1
3
1
1
1
1
1
1
1
1
1
1
3
1
1
1
1
1
1
1
1
1
1
1
1
1
1
1
1
1
1
1
2
3
1
1
1
1
1
1
1
1
1
1
3
3
1
1
1
1
1
1
1
2
3
3
3
1
1
1
1
1
1
1
1
1
1
2
2
3
2
1
1
1
1
2
3
1
1
1
1
1
2
1
1
1
1
1
1
1
1
1
2
2
2
3
3
3
3
3
1
1
1
1
1
1
1
2
3
1
1
1
1
1
1
1
1
3
2
2
3
1
1
1
1
1
1
1
1
1
3
2
1
1
1
1
1
1
2
2
2
1
1
1
1
1
1
1
1
1
2
2
2
2
2
3
3
3
1
1
1
1
1
1
1
1
1
2
1
1
1
1
1
1
1
1
1
2
2
1
1
1
1
1
1
1
1
2
3
1
1
1
1
1
1
1
2
3
1
1
1
1
1
2
3
2
1
1
1
1
2
1
1
1
1
2
2
1
1
1
1
2
1
1
1
1
1
1
1
1
1
1
1
1
1
1
1
3
2
2
3
3
1
1
1
1
1
1
1
1
1
1
1
1
1
1
1
1
2
1
1
1
1
1
1
1
1
1
1
1
1
1
1
2
3
1
1
1
1
1
1
1
1
3
1
1
1
1
1
1
1
2
1
1
1
1
1
1
1
1
1
3
2
1
1
1
1
1
1
2
1
1
1
1
1
1
1
1
1
1
1
1
1
1
1
1
1
2
3
2
2
2
2
3
2
1
1
1
1
1
1
1
1
1
1
1
1
1
1
1
1
1
2
2
1
1
1
1
1
1
1
1
1
1
1
1
1
1
1
1
1
3
1
1
1
2
3
3
1
1
1
1
1
1
1
2
1
1
1
1
1
1
1
1
1
2
1
1
1
1
1
1
2
1
1
1
1
1
1
1
1
1
1
1
1
1
1
1
2
1
1
1
1
1
1
1
1
3
2
1
1
1
1
1
1
2
1
1
1
1
1
2
1
1
1
1
1
1
1
1
1
2
2
1
1
1
1
1
3
3
2
2
3
1
1
1
1
1
1
1
1
1
2
3
2
2
3
2
3
1
1
1
1
1
1
1
1
1
2
2
2
2
1
1
1
1
2
2
1
1
1
1
1
1
1
1
2
2
3
1
1
1
1
1
1
1
2
1
1
1
1
1
1
1
1
3
3
2
1
1
1
1
1
1
1
1
2
2
1
1
1
1
1
1
2
3
1
1
1
1
2
1
1
1
1
1
1
1
1
1
2
3
2
2
2
2
3
2
1
1
1
1
1
1
2
3
1
1
1
1
1
1
1
1
1
1
3
2
1
1
1
1
1
1
1
1
2
3
1
1
1
1
1
1
1
1
1
1
3
1
1
1
1
1
1
1
1
1
1
1
1
1
1
1
1
1
1
1
2
3
1
1
1
1
1
1
1
1
1
1
2
1
1
1
1
1
1
1
1
2
3
1
1
1
1
1
1
1
1
1
1