/*--------------------------------*- C++ -*----------------------------------*\
| =========                 |                                                 |
| \\      /  F ield         | foam-extend: Open Source CFD                    |
|  \\    /   O peration     | Version:     4.1                                |
|   \\  /    A nd           | Web:         http://www.foam-extend.org         |
|    \\/     M anipulation  |                                                 |
\*---------------------------------------------------------------------------*/
FoamFile
{
    version     2.0;
    format      ascii;
    class       volScalarField;
    location    "0/solid";
    object      T;
}
// * * * * * * * * * * * * * * * * * * * * * * * * * * * * * * * * * * * * * //


dimensions      [0 0 0 1 0 0 0];

internalField   uniform 293.15;

boundaryField
{
    solid_to_fluid
    {
        type                    regionCoupledScalarFlux;
        interfaceType           defaultInterface;
        k                       "k";
        neighbourRegionName     fluid;
        neighbourPatchName      fluid_to_solid;
        neighbourFieldName      T;
        secondOrder             false;
        nonOrthCorr             true;
        value                   $internalField;
    }
    sides
    {
        type            zeroGradient;
    }
}

// ************************************************************************* //
