/*--------------------------------*- C++ -*----------------------------------*\
| =========                 |                                                 |
| \\      /  F ield         | foam-extend: Open Source CFD                    |
|  \\    /   O peration     | Version:     4.1                                |
|   \\  /    A nd           | Web:         http://www.foam-extend.org         |
|    \\/     M anipulation  |                                                 |
\*---------------------------------------------------------------------------*/
FoamFile
{
    version     2.0;
    format      ascii;
    class       volScalarField;
    location    "0/fluid";
    object      H2O;
}
// * * * * * * * * * * * * * * * * * * * * * * * * * * * * * * * * * * * * * //

dimensions      [0 -3 0 0 1 0 0];

internalField   uniform 0;

boundaryField
{
    fluid_to_solid
    {
        type                    regionCoupledScalarFlux; //regionCoupledScalarJump;
        interfaceType           defaultInterface;
        k                       "DH2O";
        accType                 aitken;
        relax                   1.0;
        neighbourRegionName     solid;
        neighbourPatchName      solid_to_fluid;
        neighbourFieldName      H2O;
        secondOrder             false;
        nonOrthCorr             true;
        value                   $internalField;
    }
    
    inlet
    {
        type            fixedValue;
        value           0.5;
    }
    
    outlet
    {
        type            zeroGradient;
    }
    sides
    {
        type            zeroGradient;
    }

}


// ************************************************************************* //
