/*--------------------------------*- C++ -*----------------------------------*\
| =========                 |                                                 |
| \\      /  F ield         | foam-extend: Open Source CFD                    |
|  \\    /   O peration     | Version:     4.1                                |
|   \\  /    A nd           | Web:         http://www.foam-extend.org         |
|    \\/     M anipulation  |                                                 |
\*---------------------------------------------------------------------------*/
FoamFile
{
    version     2.0;
    format      ascii;
    class       volScalarField;
    location    "0/solid";
    object      T;
}
// * * * * * * * * * * * * * * * * * * * * * * * * * * * * * * * * * * * * * //

// solid region

dimensions      [0 0 0 1 0 0 0];

internalField   uniform 396;

boundaryField
{
    solid_to_fluid
    {
        type                    monolithicTemperature;
        radiation               off;
        K                       k;
        remoteField             T;
        value                   $internalField;
    }
}

// ************************************************************************* //
