/*--------------------------------*- C++ -*----------------------------------*\
| =========                 |                                                 |
| \\      /  F ield         | OpenFOAM: The Open Source CFD Toolbox           |
|  \\    /   O peration     | Version:  2306                                  |
|   \\  /    A nd           | Website:  www.openfoam.com                      |
|    \\/     M anipulation  |                                                 |
\*---------------------------------------------------------------------------*/
FoamFile
{
    version         2;
    format          ascii;
    class           dictionary;
    object          fvSolution;
}

solvers
{
    R2NH
    {
        solver          BiCGStab;
        preconditioner
        {
            preconditioner  DILU;
        }
        tolerance       1e-06;
        relTol          0;
    }
    R2NH2p
    {
        solver          BiCGStab;
        preconditioner
        {
            preconditioner  DILU;
        }
        tolerance       1e-06;
        relTol          0;
    }
    R2NHCO2m
    {
        solver          BiCGStab;
        preconditioner
        {
            preconditioner  DILU;
        }
        tolerance       1e-06;
        relTol          0;
    }
    HCO3m
    {
        solver          BiCGStab;
        preconditioner
        {
            preconditioner  DILU;
        }
        tolerance       1e-06;
        relTol          0;
    }
    heatSource
    {
        solver          BiCGStab;
        preconditioner
        {
            preconditioner  DILU;
        }
        tolerance       1e-06;
        relTol          0;
    }
    CO2
    {
        solver          GAMG;
        tolerance       1e-06;
        relTol          0;
        smoother        GaussSeidel;
        cacheAgglomeration true;
        nCellsInCoarsestLevel 1000;
        agglomerator    faceAreaPair;
        mergeLevels     1;
        minIter         2;
        maxIter         50;
    }
    H2O
    {
        solver          GAMG;
        tolerance       1e-06;
        relTol          0;
        smoother        GaussSeidel;
        cacheAgglomeration true;
        nCellsInCoarsestLevel 1000;
        agglomerator    faceAreaPair;
        mergeLevels     1;
        minIter         2;
        maxIter         50;
    }
    T
    {
        solver          BiCGStab;
        preconditioner
        {
            preconditioner  DILU;
        }
        tolerance       1e-06;
        relTol          0;
    }
}

SIMPLE
{
    nNonOrthogonalCorrectors 3;
    residualControl
    {
        T               1e-06;
        CO2             1e-06;
        H2O             1e-06;
    }
}

PISO
{
    pRefPoint       ( 0 0 0 );
    pRefValue       0;
}

PIMPLE
{
    nCorrectors     2;
    nNonOrthogonalCorrectors 1;
    residualControl
    {
        p
        {
            relTol          0;
            tolerance       0;
        }
        U
        {
            relTol          0;
            tolerance       0;
        }
    }
}

relaxationFactors
{
    T               1;
    CO2             1;
    H2O             1;
}
// * * * * * * * * * * * * * * * * * * * * * * * * * * * * * * * * * * * * * //