/*--------------------------------*- C++ -*----------------------------------*\
| =========                 |                                                 |
| \\      /  F ield         | foam-extend: Open Source CFD                    |
|  \\    /   O peration     | Version:     4.1                                |
|   \\  /    A nd           | Web:         http://www.foam-extend.org         |
|    \\/     M anipulation  |                                                 |
\*---------------------------------------------------------------------------*/
FoamFile
{
    version     2.0;
    format      ascii;
    class       faBoundaryMesh;
    location    "4e-05/faMesh";
    object      faBoundary;
}
// * * * * * * * * * * * * * * * * * * * * * * * * * * * * * * * * * * * * * //

1
(
    undefined
    {
        type            patch;
        edgeLabels      List<label> 
7550
(
1896795
1896796
1896797
1896798
1896799
1896800
1896801
1896802
1896803
1896804
1896805
1896806
1896807
1896808
1896809
1896810
1896811
1896812
1896813
1896814
1896815
1896816
1896817
1896818
1896819
1896820
1896821
1896822
1896823
1896824
1896825
1896826
1896827
1896828
1896829
1896830
1896831
1896832
1896833
1896834
1896835
1896836
1896837
1896838
1896839
1896840
1896841
1896842
1896843
1896844
1896845
1896846
1896847
1896848
1896849
1896850
1896851
1896852
1896853
1896854
1896855
1896856
1896857
1896858
1896859
1896860
1896861
1896862
1896863
1896864
1896865
1896866
1896867
1896868
1896869
1896870
1896871
1896872
1896873
1896874
1896875
1896876
1896877
1896878
1896879
1896880
1896881
1896882
1896883
1896884
1896885
1896886
1896887
1896888
1896889
1896890
1896891
1896892
1896893
1896894
1896895
1896896
1896897
1896898
1896899
1896900
1896901
1896902
1896903
1896904
1896905
1896906
1896907
1896908
1896909
1896910
1896911
1896912
1896913
1896914
1896915
1896916
1896917
1896918
1896919
1896920
1896921
1896922
1896923
1896924
1896925
1896926
1896927
1896928
1896929
1896930
1896931
1896932
1896933
1896934
1896935
1896936
1896937
1896938
1896939
1896940
1896941
1896942
1896943
1896944
1896945
1896946
1896947
1896948
1896949
1896950
1896951
1896952
1896953
1896954
1896955
1896956
1896957
1896958
1896959
1896960
1896961
1896962
1896963
1896964
1896965
1896966
1896967
1896968
1896969
1896970
1896971
1896972
1896973
1896974
1896975
1896976
1896977
1896978
1896979
1896980
1896981
1896982
1896983
1896984
1896985
1896986
1896987
1896988
1896989
1896990
1896991
1896992
1896993
1896994
1896995
1896996
1896997
1896998
1896999
1897000
1897001
1897002
1897003
1897004
1897005
1897006
1897007
1897008
1897009
1897010
1897011
1897012
1897013
1897014
1897015
1897016
1897017
1897018
1897019
1897020
1897021
1897022
1897023
1897024
1897025
1897026
1897027
1897028
1897029
1897030
1897031
1897032
1897033
1897034
1897035
1897036
1897037
1897038
1897039
1897040
1897041
1897042
1897043
1897044
1897045
1897046
1897047
1897048
1897049
1897050
1897051
1897052
1897053
1897054
1897055
1897056
1897057
1897058
1897059
1897060
1897061
1897062
1897063
1897064
1897065
1897066
1897067
1897068
1897069
1897070
1897071
1897072
1897073
1897074
1897075
1897076
1897077
1897078
1897079
1897080
1897081
1897082
1897083
1897084
1897085
1897086
1897087
1897088
1897089
1897090
1897091
1897092
1897093
1897094
1897095
1897096
1897097
1897098
1897099
1897100
1897101
1897102
1897103
1897104
1897105
1897106
1897107
1897108
1897109
1897110
1897111
1897112
1897113
1897114
1897115
1897116
1897117
1897118
1897119
1897120
1897121
1897122
1897123
1897124
1897125
1897126
1897127
1897128
1897129
1897130
1897131
1897132
1897133
1897134
1897135
1897136
1897137
1897138
1897139
1897140
1897141
1897142
1897143
1897144
1897145
1897146
1897147
1897148
1897149
1897150
1897151
1897152
1897153
1897154
1897155
1897156
1897157
1897158
1897159
1897160
1897161
1897162
1897163
1897164
1897165
1897166
1897167
1897168
1897169
1897170
1897171
1897172
1897173
1897174
1897175
1897176
1897177
1897178
1897179
1897180
1897181
1897182
1897183
1897184
1897185
1897186
1897187
1897188
1897189
1897190
1897191
1897192
1897193
1897194
1897195
1897196
1897197
1897198
1897199
1897200
1897201
1897202
1897203
1897204
1897205
1897206
1897207
1897208
1897209
1897210
1897211
1897212
1897213
1897214
1897215
1897216
1897217
1897218
1897219
1897220
1897221
1897222
1897223
1897224
1897225
1897226
1897227
1897228
1897229
1897230
1897231
1897232
1897233
1897234
1897235
1897236
1897237
1897238
1897239
1897240
1897241
1897242
1897243
1897244
1897245
1897246
1897247
1897248
1897249
1897250
1897251
1897252
1897253
1897254
1897255
1897256
1897257
1897258
1897259
1897260
1897261
1897262
1897263
1897264
1897265
1897266
1897267
1897268
1897269
1897270
1897271
1897272
1897273
1897274
1897275
1897276
1897277
1897278
1897279
1897280
1897281
1897282
1897283
1897284
1897285
1897286
1897287
1897288
1897289
1897290
1897291
1897292
1897293
1897294
1897295
1897296
1897297
1897298
1897299
1897300
1897301
1897302
1897303
1897304
1897305
1897306
1897307
1897308
1897309
1897310
1897311
1897312
1897313
1897314
1897315
1897316
1897317
1897318
1897319
1897320
1897321
1897322
1897323
1897324
1897325
1897326
1897327
1897328
1897329
1897330
1897331
1897332
1897333
1897334
1897335
1897336
1897337
1897338
1897339
1897340
1897341
1897342
1897343
1897344
1897345
1897346
1897347
1897348
1897349
1897350
1897351
1897352
1897353
1897354
1897355
1897356
1897357
1897358
1897359
1897360
1897361
1897362
1897363
1897364
1897365
1897366
1897367
1897368
1897369
1897370
1897371
1897372
1897373
1897374
1897375
1897376
1897377
1897378
1897379
1897380
1897381
1897382
1897383
1897384
1897385
1897386
1897387
1897388
1897389
1897390
1897391
1897392
1897393
1897394
1897395
1897396
1897397
1897398
1897399
1897400
1897401
1897402
1897403
1897404
1897405
1897406
1897407
1897408
1897409
1897410
1897411
1897412
1897413
1897414
1897415
1897416
1897417
1897418
1897419
1897420
1897421
1897422
1897423
1897424
1897425
1897426
1897427
1897428
1897429
1897430
1897431
1897432
1897433
1897434
1897435
1897436
1897437
1897438
1897439
1897440
1897441
1897442
1897443
1897444
1897445
1897446
1897447
1897448
1897449
1897450
1897451
1897452
1897453
1897454
1897455
1897456
1897457
1897458
1897459
1897460
1897461
1897462
1897463
1897464
1897465
1897466
1897467
1897468
1897469
1897470
1897471
1897472
1897473
1897474
1897475
1897476
1897477
1897478
1897479
1897480
1897481
1897482
1897483
1897484
1897485
1897486
1897487
1897488
1897489
1897490
1897491
1897492
1897493
1897494
1897495
1897496
1897497
1897498
1897499
1897500
1897501
1897502
1897503
1897504
1897505
1897506
1897507
1897508
1897509
1897510
1897511
1897512
1897513
1897514
1897515
1897516
1897517
1897518
1897519
1897520
1897521
1897522
1897523
1897524
1897525
1897526
1897527
1897528
1897529
1897530
1897531
1897532
1897533
1897534
1897535
1897536
1897537
1897538
1897539
1897540
1897541
1897542
1897543
1897544
1897545
1897546
1897547
1897548
1897549
1897550
1897551
1897552
1897553
1897554
1897555
1897556
1897557
1897558
1897559
1897560
1897561
1897562
1897563
1897564
1897565
1897566
1897567
1897568
1897569
1897570
1897571
1897572
1897573
1897574
1897575
1897576
1897577
1897578
1897579
1897580
1897581
1897582
1897583
1897584
1897585
1897586
1897587
1897588
1897589
1897590
1897591
1897592
1897593
1897594
1897595
1897596
1897597
1897598
1897599
1897600
1897601
1897602
1897603
1897604
1897605
1897606
1897607
1897608
1897609
1897610
1897611
1897612
1897613
1897614
1897615
1897616
1897617
1897618
1897619
1897620
1897621
1897622
1897623
1897624
1897625
1897626
1897627
1897628
1897629
1897630
1897631
1897632
1897633
1897634
1897635
1897636
1897637
1897638
1897639
1897640
1897641
1897642
1897643
1897644
1897645
1897646
1897647
1897648
1897649
1897650
1897651
1897652
1897653
1897654
1897655
1897656
1897657
1897658
1897659
1897660
1897661
1897662
1897663
1897664
1897665
1897666
1897667
1897668
1897669
1897670
1897671
1897672
1897673
1897674
1897675
1897676
1897677
1897678
1897679
1897680
1897681
1897682
1897683
1897684
1897685
1897686
1897687
1897688
1897689
1897690
1897691
1897692
1897693
1897694
1897695
1897696
1897697
1897698
1897699
1897700
1897701
1897702
1897703
1897704
1897705
1897706
1897707
1897708
1897709
1897710
1897711
1897712
1897713
1897714
1897715
1897716
1897717
1897718
1897719
1897720
1897721
1897722
1897723
1897724
1897725
1897726
1897727
1897728
1897729
1897730
1897731
1897732
1897733
1897734
1897735
1897736
1897737
1897738
1897739
1897740
1897741
1897742
1897743
1897744
1897745
1897746
1897747
1897748
1897749
1897750
1897751
1897752
1897753
1897754
1897755
1897756
1897757
1897758
1897759
1897760
1897761
1897762
1897763
1897764
1897765
1897766
1897767
1897768
1897769
1897770
1897771
1897772
1897773
1897774
1897775
1897776
1897777
1897778
1897779
1897780
1897781
1897782
1897783
1897784
1897785
1897786
1897787
1897788
1897789
1897790
1897791
1897792
1897793
1897794
1897795
1897796
1897797
1897798
1897799
1897800
1897801
1897802
1897803
1897804
1897805
1897806
1897807
1897808
1897809
1897810
1897811
1897812
1897813
1897814
1897815
1897816
1897817
1897818
1897819
1897820
1897821
1897822
1897823
1897824
1897825
1897826
1897827
1897828
1897829
1897830
1897831
1897832
1897833
1897834
1897835
1897836
1897837
1897838
1897839
1897840
1897841
1897842
1897843
1897844
1897845
1897846
1897847
1897848
1897849
1897850
1897851
1897852
1897853
1897854
1897855
1897856
1897857
1897858
1897859
1897860
1897861
1897862
1897863
1897864
1897865
1897866
1897867
1897868
1897869
1897870
1897871
1897872
1897873
1897874
1897875
1897876
1897877
1897878
1897879
1897880
1897881
1897882
1897883
1897884
1897885
1897886
1897887
1897888
1897889
1897890
1897891
1897892
1897893
1897894
1897895
1897896
1897897
1897898
1897899
1897900
1897901
1897902
1897903
1897904
1897905
1897906
1897907
1897908
1897909
1897910
1897911
1897912
1897913
1897914
1897915
1897916
1897917
1897918
1897919
1897920
1897921
1897922
1897923
1897924
1897925
1897926
1897927
1897928
1897929
1897930
1897931
1897932
1897933
1897934
1897935
1897936
1897937
1897938
1897939
1897940
1897941
1897942
1897943
1897944
1897945
1897946
1897947
1897948
1897949
1897950
1897951
1897952
1897953
1897954
1897955
1897956
1897957
1897958
1897959
1897960
1897961
1897962
1897963
1897964
1897965
1897966
1897967
1897968
1897969
1897970
1897971
1897972
1897973
1897974
1897975
1897976
1897977
1897978
1897979
1897980
1897981
1897982
1897983
1897984
1897985
1897986
1897987
1897988
1897989
1897990
1897991
1897992
1897993
1897994
1897995
1897996
1897997
1897998
1897999
1898000
1898001
1898002
1898003
1898004
1898005
1898006
1898007
1898008
1898009
1898010
1898011
1898012
1898013
1898014
1898015
1898016
1898017
1898018
1898019
1898020
1898021
1898022
1898023
1898024
1898025
1898026
1898027
1898028
1898029
1898030
1898031
1898032
1898033
1898034
1898035
1898036
1898037
1898038
1898039
1898040
1898041
1898042
1898043
1898044
1898045
1898046
1898047
1898048
1898049
1898050
1898051
1898052
1898053
1898054
1898055
1898056
1898057
1898058
1898059
1898060
1898061
1898062
1898063
1898064
1898065
1898066
1898067
1898068
1898069
1898070
1898071
1898072
1898073
1898074
1898075
1898076
1898077
1898078
1898079
1898080
1898081
1898082
1898083
1898084
1898085
1898086
1898087
1898088
1898089
1898090
1898091
1898092
1898093
1898094
1898095
1898096
1898097
1898098
1898099
1898100
1898101
1898102
1898103
1898104
1898105
1898106
1898107
1898108
1898109
1898110
1898111
1898112
1898113
1898114
1898115
1898116
1898117
1898118
1898119
1898120
1898121
1898122
1898123
1898124
1898125
1898126
1898127
1898128
1898129
1898130
1898131
1898132
1898133
1898134
1898135
1898136
1898137
1898138
1898139
1898140
1898141
1898142
1898143
1898144
1898145
1898146
1898147
1898148
1898149
1898150
1898151
1898152
1898153
1898154
1898155
1898156
1898157
1898158
1898159
1898160
1898161
1898162
1898163
1898164
1898165
1898166
1898167
1898168
1898169
1898170
1898171
1898172
1898173
1898174
1898175
1898176
1898177
1898178
1898179
1898180
1898181
1898182
1898183
1898184
1898185
1898186
1898187
1898188
1898189
1898190
1898191
1898192
1898193
1898194
1898195
1898196
1898197
1898198
1898199
1898200
1898201
1898202
1898203
1898204
1898205
1898206
1898207
1898208
1898209
1898210
1898211
1898212
1898213
1898214
1898215
1898216
1898217
1898218
1898219
1898220
1898221
1898222
1898223
1898224
1898225
1898226
1898227
1898228
1898229
1898230
1898231
1898232
1898233
1898234
1898235
1898236
1898237
1898238
1898239
1898240
1898241
1898242
1898243
1898244
1898245
1898246
1898247
1898248
1898249
1898250
1898251
1898252
1898253
1898254
1898255
1898256
1898257
1898258
1898259
1898260
1898261
1898262
1898263
1898264
1898265
1898266
1898267
1898268
1898269
1898270
1898271
1898272
1898273
1898274
1898275
1898276
1898277
1898278
1898279
1898280
1898281
1898282
1898283
1898284
1898285
1898286
1898287
1898288
1898289
1898290
1898291
1898292
1898293
1898294
1898295
1898296
1898297
1898298
1898299
1898300
1898301
1898302
1898303
1898304
1898305
1898306
1898307
1898308
1898309
1898310
1898311
1898312
1898313
1898314
1898315
1898316
1898317
1898318
1898319
1898320
1898321
1898322
1898323
1898324
1898325
1898326
1898327
1898328
1898329
1898330
1898331
1898332
1898333
1898334
1898335
1898336
1898337
1898338
1898339
1898340
1898341
1898342
1898343
1898344
1898345
1898346
1898347
1898348
1898349
1898350
1898351
1898352
1898353
1898354
1898355
1898356
1898357
1898358
1898359
1898360
1898361
1898362
1898363
1898364
1898365
1898366
1898367
1898368
1898369
1898370
1898371
1898372
1898373
1898374
1898375
1898376
1898377
1898378
1898379
1898380
1898381
1898382
1898383
1898384
1898385
1898386
1898387
1898388
1898389
1898390
1898391
1898392
1898393
1898394
1898395
1898396
1898397
1898398
1898399
1898400
1898401
1898402
1898403
1898404
1898405
1898406
1898407
1898408
1898409
1898410
1898411
1898412
1898413
1898414
1898415
1898416
1898417
1898418
1898419
1898420
1898421
1898422
1898423
1898424
1898425
1898426
1898427
1898428
1898429
1898430
1898431
1898432
1898433
1898434
1898435
1898436
1898437
1898438
1898439
1898440
1898441
1898442
1898443
1898444
1898445
1898446
1898447
1898448
1898449
1898450
1898451
1898452
1898453
1898454
1898455
1898456
1898457
1898458
1898459
1898460
1898461
1898462
1898463
1898464
1898465
1898466
1898467
1898468
1898469
1898470
1898471
1898472
1898473
1898474
1898475
1898476
1898477
1898478
1898479
1898480
1898481
1898482
1898483
1898484
1898485
1898486
1898487
1898488
1898489
1898490
1898491
1898492
1898493
1898494
1898495
1898496
1898497
1898498
1898499
1898500
1898501
1898502
1898503
1898504
1898505
1898506
1898507
1898508
1898509
1898510
1898511
1898512
1898513
1898514
1898515
1898516
1898517
1898518
1898519
1898520
1898521
1898522
1898523
1898524
1898525
1898526
1898527
1898528
1898529
1898530
1898531
1898532
1898533
1898534
1898535
1898536
1898537
1898538
1898539
1898540
1898541
1898542
1898543
1898544
1898545
1898546
1898547
1898548
1898549
1898550
1898551
1898552
1898553
1898554
1898555
1898556
1898557
1898558
1898559
1898560
1898561
1898562
1898563
1898564
1898565
1898566
1898567
1898568
1898569
1898570
1898571
1898572
1898573
1898574
1898575
1898576
1898577
1898578
1898579
1898580
1898581
1898582
1898583
1898584
1898585
1898586
1898587
1898588
1898589
1898590
1898591
1898592
1898593
1898594
1898595
1898596
1898597
1898598
1898599
1898600
1898601
1898602
1898603
1898604
1898605
1898606
1898607
1898608
1898609
1898610
1898611
1898612
1898613
1898614
1898615
1898616
1898617
1898618
1898619
1898620
1898621
1898622
1898623
1898624
1898625
1898626
1898627
1898628
1898629
1898630
1898631
1898632
1898633
1898634
1898635
1898636
1898637
1898638
1898639
1898640
1898641
1898642
1898643
1898644
1898645
1898646
1898647
1898648
1898649
1898650
1898651
1898652
1898653
1898654
1898655
1898656
1898657
1898658
1898659
1898660
1898661
1898662
1898663
1898664
1898665
1898666
1898667
1898668
1898669
1898670
1898671
1898672
1898673
1898674
1898675
1898676
1898677
1898678
1898679
1898680
1898681
1898682
1898683
1898684
1898685
1898686
1898687
1898688
1898689
1898690
1898691
1898692
1898693
1898694
1898695
1898696
1898697
1898698
1898699
1898700
1898701
1898702
1898703
1898704
1898705
1898706
1898707
1898708
1898709
1898710
1898711
1898712
1898713
1898714
1898715
1898716
1898717
1898718
1898719
1898720
1898721
1898722
1898723
1898724
1898725
1898726
1898727
1898728
1898729
1898730
1898731
1898732
1898733
1898734
1898735
1898736
1898737
1898738
1898739
1898740
1898741
1898742
1898743
1898744
1898745
1898746
1898747
1898748
1898749
1898750
1898751
1898752
1898753
1898754
1898755
1898756
1898757
1898758
1898759
1898760
1898761
1898762
1898763
1898764
1898765
1898766
1898767
1898768
1898769
1898770
1898771
1898772
1898773
1898774
1898775
1898776
1898777
1898778
1898779
1898780
1898781
1898782
1898783
1898784
1898785
1898786
1898787
1898788
1898789
1898790
1898791
1898792
1898793
1898794
1898795
1898796
1898797
1898798
1898799
1898800
1898801
1898802
1898803
1898804
1898805
1898806
1898807
1898808
1898809
1898810
1898811
1898812
1898813
1898814
1898815
1898816
1898817
1898818
1898819
1898820
1898821
1898822
1898823
1898824
1898825
1898826
1898827
1898828
1898829
1898830
1898831
1898832
1898833
1898834
1898835
1898836
1898837
1898838
1898839
1898840
1898841
1898842
1898843
1898844
1898845
1898846
1898847
1898848
1898849
1898850
1898851
1898852
1898853
1898854
1898855
1898856
1898857
1898858
1898859
1898860
1898861
1898862
1898863
1898864
1898865
1898866
1898867
1898868
1898869
1898870
1898871
1898872
1898873
1898874
1898875
1898876
1898877
1898878
1898879
1898880
1898881
1898882
1898883
1898884
1898885
1898886
1898887
1898888
1898889
1898890
1898891
1898892
1898893
1898894
1898895
1898896
1898897
1898898
1898899
1898900
1898901
1898902
1898903
1898904
1898905
1898906
1898907
1898908
1898909
1898910
1898911
1898912
1898913
1898914
1898915
1898916
1898917
1898918
1898919
1898920
1898921
1898922
1898923
1898924
1898925
1898926
1898927
1898928
1898929
1898930
1898931
1898932
1898933
1898934
1898935
1898936
1898937
1898938
1898939
1898940
1898941
1898942
1898943
1898944
1898945
1898946
1898947
1898948
1898949
1898950
1898951
1898952
1898953
1898954
1898955
1898956
1898957
1898958
1898959
1898960
1898961
1898962
1898963
1898964
1898965
1898966
1898967
1898968
1898969
1898970
1898971
1898972
1898973
1898974
1898975
1898976
1898977
1898978
1898979
1898980
1898981
1898982
1898983
1898984
1898985
1898986
1898987
1898988
1898989
1898990
1898991
1898992
1898993
1898994
1898995
1898996
1898997
1898998
1898999
1899000
1899001
1899002
1899003
1899004
1899005
1899006
1899007
1899008
1899009
1899010
1899011
1899012
1899013
1899014
1899015
1899016
1899017
1899018
1899019
1899020
1899021
1899022
1899023
1899024
1899025
1899026
1899027
1899028
1899029
1899030
1899031
1899032
1899033
1899034
1899035
1899036
1899037
1899038
1899039
1899040
1899041
1899042
1899043
1899044
1899045
1899046
1899047
1899048
1899049
1899050
1899051
1899052
1899053
1899054
1899055
1899056
1899057
1899058
1899059
1899060
1899061
1899062
1899063
1899064
1899065
1899066
1899067
1899068
1899069
1899070
1899071
1899072
1899073
1899074
1899075
1899076
1899077
1899078
1899079
1899080
1899081
1899082
1899083
1899084
1899085
1899086
1899087
1899088
1899089
1899090
1899091
1899092
1899093
1899094
1899095
1899096
1899097
1899098
1899099
1899100
1899101
1899102
1899103
1899104
1899105
1899106
1899107
1899108
1899109
1899110
1899111
1899112
1899113
1899114
1899115
1899116
1899117
1899118
1899119
1899120
1899121
1899122
1899123
1899124
1899125
1899126
1899127
1899128
1899129
1899130
1899131
1899132
1899133
1899134
1899135
1899136
1899137
1899138
1899139
1899140
1899141
1899142
1899143
1899144
1899145
1899146
1899147
1899148
1899149
1899150
1899151
1899152
1899153
1899154
1899155
1899156
1899157
1899158
1899159
1899160
1899161
1899162
1899163
1899164
1899165
1899166
1899167
1899168
1899169
1899170
1899171
1899172
1899173
1899174
1899175
1899176
1899177
1899178
1899179
1899180
1899181
1899182
1899183
1899184
1899185
1899186
1899187
1899188
1899189
1899190
1899191
1899192
1899193
1899194
1899195
1899196
1899197
1899198
1899199
1899200
1899201
1899202
1899203
1899204
1899205
1899206
1899207
1899208
1899209
1899210
1899211
1899212
1899213
1899214
1899215
1899216
1899217
1899218
1899219
1899220
1899221
1899222
1899223
1899224
1899225
1899226
1899227
1899228
1899229
1899230
1899231
1899232
1899233
1899234
1899235
1899236
1899237
1899238
1899239
1899240
1899241
1899242
1899243
1899244
1899245
1899246
1899247
1899248
1899249
1899250
1899251
1899252
1899253
1899254
1899255
1899256
1899257
1899258
1899259
1899260
1899261
1899262
1899263
1899264
1899265
1899266
1899267
1899268
1899269
1899270
1899271
1899272
1899273
1899274
1899275
1899276
1899277
1899278
1899279
1899280
1899281
1899282
1899283
1899284
1899285
1899286
1899287
1899288
1899289
1899290
1899291
1899292
1899293
1899294
1899295
1899296
1899297
1899298
1899299
1899300
1899301
1899302
1899303
1899304
1899305
1899306
1899307
1899308
1899309
1899310
1899311
1899312
1899313
1899314
1899315
1899316
1899317
1899318
1899319
1899320
1899321
1899322
1899323
1899324
1899325
1899326
1899327
1899328
1899329
1899330
1899331
1899332
1899333
1899334
1899335
1899336
1899337
1899338
1899339
1899340
1899341
1899342
1899343
1899344
1899345
1899346
1899347
1899348
1899349
1899350
1899351
1899352
1899353
1899354
1899355
1899356
1899357
1899358
1899359
1899360
1899361
1899362
1899363
1899364
1899365
1899366
1899367
1899368
1899369
1899370
1899371
1899372
1899373
1899374
1899375
1899376
1899377
1899378
1899379
1899380
1899381
1899382
1899383
1899384
1899385
1899386
1899387
1899388
1899389
1899390
1899391
1899392
1899393
1899394
1899395
1899396
1899397
1899398
1899399
1899400
1899401
1899402
1899403
1899404
1899405
1899406
1899407
1899408
1899409
1899410
1899411
1899412
1899413
1899414
1899415
1899416
1899417
1899418
1899419
1899420
1899421
1899422
1899423
1899424
1899425
1899426
1899427
1899428
1899429
1899430
1899431
1899432
1899433
1899434
1899435
1899436
1899437
1899438
1899439
1899440
1899441
1899442
1899443
1899444
1899445
1899446
1899447
1899448
1899449
1899450
1899451
1899452
1899453
1899454
1899455
1899456
1899457
1899458
1899459
1899460
1899461
1899462
1899463
1899464
1899465
1899466
1899467
1899468
1899469
1899470
1899471
1899472
1899473
1899474
1899475
1899476
1899477
1899478
1899479
1899480
1899481
1899482
1899483
1899484
1899485
1899486
1899487
1899488
1899489
1899490
1899491
1899492
1899493
1899494
1899495
1899496
1899497
1899498
1899499
1899500
1899501
1899502
1899503
1899504
1899505
1899506
1899507
1899508
1899509
1899510
1899511
1899512
1899513
1899514
1899515
1899516
1899517
1899518
1899519
1899520
1899521
1899522
1899523
1899524
1899525
1899526
1899527
1899528
1899529
1899530
1899531
1899532
1899533
1899534
1899535
1899536
1899537
1899538
1899539
1899540
1899541
1899542
1899543
1899544
1899545
1899546
1899547
1899548
1899549
1899550
1899551
1899552
1899553
1899554
1899555
1899556
1899557
1899558
1899559
1899560
1899561
1899562
1899563
1899564
1899565
1899566
1899567
1899568
1899569
1899570
1899571
1899572
1899573
1899574
1899575
1899576
1899577
1899578
1899579
1899580
1899581
1899582
1899583
1899584
1899585
1899586
1899587
1899588
1899589
1899590
1899591
1899592
1899593
1899594
1899595
1899596
1899597
1899598
1899599
1899600
1899601
1899602
1899603
1899604
1899605
1899606
1899607
1899608
1899609
1899610
1899611
1899612
1899613
1899614
1899615
1899616
1899617
1899618
1899619
1899620
1899621
1899622
1899623
1899624
1899625
1899626
1899627
1899628
1899629
1899630
1899631
1899632
1899633
1899634
1899635
1899636
1899637
1899638
1899639
1899640
1899641
1899642
1899643
1899644
1899645
1899646
1899647
1899648
1899649
1899650
1899651
1899652
1899653
1899654
1899655
1899656
1899657
1899658
1899659
1899660
1899661
1899662
1899663
1899664
1899665
1899666
1899667
1899668
1899669
1899670
1899671
1899672
1899673
1899674
1899675
1899676
1899677
1899678
1899679
1899680
1899681
1899682
1899683
1899684
1899685
1899686
1899687
1899688
1899689
1899690
1899691
1899692
1899693
1899694
1899695
1899696
1899697
1899698
1899699
1899700
1899701
1899702
1899703
1899704
1899705
1899706
1899707
1899708
1899709
1899710
1899711
1899712
1899713
1899714
1899715
1899716
1899717
1899718
1899719
1899720
1899721
1899722
1899723
1899724
1899725
1899726
1899727
1899728
1899729
1899730
1899731
1899732
1899733
1899734
1899735
1899736
1899737
1899738
1899739
1899740
1899741
1899742
1899743
1899744
1899745
1899746
1899747
1899748
1899749
1899750
1899751
1899752
1899753
1899754
1899755
1899756
1899757
1899758
1899759
1899760
1899761
1899762
1899763
1899764
1899765
1899766
1899767
1899768
1899769
1899770
1899771
1899772
1899773
1899774
1899775
1899776
1899777
1899778
1899779
1899780
1899781
1899782
1899783
1899784
1899785
1899786
1899787
1899788
1899789
1899790
1899791
1899792
1899793
1899794
1899795
1899796
1899797
1899798
1899799
1899800
1899801
1899802
1899803
1899804
1899805
1899806
1899807
1899808
1899809
1899810
1899811
1899812
1899813
1899814
1899815
1899816
1899817
1899818
1899819
1899820
1899821
1899822
1899823
1899824
1899825
1899826
1899827
1899828
1899829
1899830
1899831
1899832
1899833
1899834
1899835
1899836
1899837
1899838
1899839
1899840
1899841
1899842
1899843
1899844
1899845
1899846
1899847
1899848
1899849
1899850
1899851
1899852
1899853
1899854
1899855
1899856
1899857
1899858
1899859
1899860
1899861
1899862
1899863
1899864
1899865
1899866
1899867
1899868
1899869
1899870
1899871
1899872
1899873
1899874
1899875
1899876
1899877
1899878
1899879
1899880
1899881
1899882
1899883
1899884
1899885
1899886
1899887
1899888
1899889
1899890
1899891
1899892
1899893
1899894
1899895
1899896
1899897
1899898
1899899
1899900
1899901
1899902
1899903
1899904
1899905
1899906
1899907
1899908
1899909
1899910
1899911
1899912
1899913
1899914
1899915
1899916
1899917
1899918
1899919
1899920
1899921
1899922
1899923
1899924
1899925
1899926
1899927
1899928
1899929
1899930
1899931
1899932
1899933
1899934
1899935
1899936
1899937
1899938
1899939
1899940
1899941
1899942
1899943
1899944
1899945
1899946
1899947
1899948
1899949
1899950
1899951
1899952
1899953
1899954
1899955
1899956
1899957
1899958
1899959
1899960
1899961
1899962
1899963
1899964
1899965
1899966
1899967
1899968
1899969
1899970
1899971
1899972
1899973
1899974
1899975
1899976
1899977
1899978
1899979
1899980
1899981
1899982
1899983
1899984
1899985
1899986
1899987
1899988
1899989
1899990
1899991
1899992
1899993
1899994
1899995
1899996
1899997
1899998
1899999
1900000
1900001
1900002
1900003
1900004
1900005
1900006
1900007
1900008
1900009
1900010
1900011
1900012
1900013
1900014
1900015
1900016
1900017
1900018
1900019
1900020
1900021
1900022
1900023
1900024
1900025
1900026
1900027
1900028
1900029
1900030
1900031
1900032
1900033
1900034
1900035
1900036
1900037
1900038
1900039
1900040
1900041
1900042
1900043
1900044
1900045
1900046
1900047
1900048
1900049
1900050
1900051
1900052
1900053
1900054
1900055
1900056
1900057
1900058
1900059
1900060
1900061
1900062
1900063
1900064
1900065
1900066
1900067
1900068
1900069
1900070
1900071
1900072
1900073
1900074
1900075
1900076
1900077
1900078
1900079
1900080
1900081
1900082
1900083
1900084
1900085
1900086
1900087
1900088
1900089
1900090
1900091
1900092
1900093
1900094
1900095
1900096
1900097
1900098
1900099
1900100
1900101
1900102
1900103
1900104
1900105
1900106
1900107
1900108
1900109
1900110
1900111
1900112
1900113
1900114
1900115
1900116
1900117
1900118
1900119
1900120
1900121
1900122
1900123
1900124
1900125
1900126
1900127
1900128
1900129
1900130
1900131
1900132
1900133
1900134
1900135
1900136
1900137
1900138
1900139
1900140
1900141
1900142
1900143
1900144
1900145
1900146
1900147
1900148
1900149
1900150
1900151
1900152
1900153
1900154
1900155
1900156
1900157
1900158
1900159
1900160
1900161
1900162
1900163
1900164
1900165
1900166
1900167
1900168
1900169
1900170
1900171
1900172
1900173
1900174
1900175
1900176
1900177
1900178
1900179
1900180
1900181
1900182
1900183
1900184
1900185
1900186
1900187
1900188
1900189
1900190
1900191
1900192
1900193
1900194
1900195
1900196
1900197
1900198
1900199
1900200
1900201
1900202
1900203
1900204
1900205
1900206
1900207
1900208
1900209
1900210
1900211
1900212
1900213
1900214
1900215
1900216
1900217
1900218
1900219
1900220
1900221
1900222
1900223
1900224
1900225
1900226
1900227
1900228
1900229
1900230
1900231
1900232
1900233
1900234
1900235
1900236
1900237
1900238
1900239
1900240
1900241
1900242
1900243
1900244
1900245
1900246
1900247
1900248
1900249
1900250
1900251
1900252
1900253
1900254
1900255
1900256
1900257
1900258
1900259
1900260
1900261
1900262
1900263
1900264
1900265
1900266
1900267
1900268
1900269
1900270
1900271
1900272
1900273
1900274
1900275
1900276
1900277
1900278
1900279
1900280
1900281
1900282
1900283
1900284
1900285
1900286
1900287
1900288
1900289
1900290
1900291
1900292
1900293
1900294
1900295
1900296
1900297
1900298
1900299
1900300
1900301
1900302
1900303
1900304
1900305
1900306
1900307
1900308
1900309
1900310
1900311
1900312
1900313
1900314
1900315
1900316
1900317
1900318
1900319
1900320
1900321
1900322
1900323
1900324
1900325
1900326
1900327
1900328
1900329
1900330
1900331
1900332
1900333
1900334
1900335
1900336
1900337
1900338
1900339
1900340
1900341
1900342
1900343
1900344
1900345
1900346
1900347
1900348
1900349
1900350
1900351
1900352
1900353
1900354
1900355
1900356
1900357
1900358
1900359
1900360
1900361
1900362
1900363
1900364
1900365
1900366
1900367
1900368
1900369
1900370
1900371
1900372
1900373
1900374
1900375
1900376
1900377
1900378
1900379
1900380
1900381
1900382
1900383
1900384
1900385
1900386
1900387
1900388
1900389
1900390
1900391
1900392
1900393
1900394
1900395
1900396
1900397
1900398
1900399
1900400
1900401
1900402
1900403
1900404
1900405
1900406
1900407
1900408
1900409
1900410
1900411
1900412
1900413
1900414
1900415
1900416
1900417
1900418
1900419
1900420
1900421
1900422
1900423
1900424
1900425
1900426
1900427
1900428
1900429
1900430
1900431
1900432